@<TRIPOS>MOLECULE
frag1.pdb
 4 3 0 0 0
SMALL
GASTEIGER

@<TRIPOS>ATOM
      1  O4        50.7340  -10.9580    4.3400 O.2     1  HCY1       -0.2854
      2  O5        52.5690  -12.8050    3.7630 O.3     1  HCY1       -0.2114
      3  C20       51.1090  -11.6210    5.3130 C.2     1  HCY1        0.2431
      4  C21       52.0990  -12.7640    5.1070 C.3     1  HCY1        0.2536
@<TRIPOS>BOND
     1     2     4    1
     2     1     3    1
     3     4     3    1
