CVX
     RDKit          3D

 43 42  0  0  0  0  0  0  0  0999 V2000
    1.3123    0.5798   -0.7178 O   0  0  0  0  0  0  0  0  0  0  0  0
    1.5290    1.7061    0.2539 P   0  0  2  0  0  0  0  0  0  0  0  0
    1.6310    1.4703    1.8456 O   0  0  0  0  0  0  0  0  0  0  0  0
    2.6230    0.6089    2.3892 C   0  0  0  0  0  0  0  0  0  0  0  0
    3.9535    1.3305    2.5801 C   0  0  0  0  0  0  0  0  0  0  0  0
    4.9880    0.9159    1.5313 C   0  0  0  0  0  0  0  0  0  0  0  0
    6.2686    1.7263    1.6626 C   0  0  0  0  0  0  0  0  0  0  0  0
   -0.8060    1.9901    0.4456 S   0  0  0  0  0  0  0  0  0  0  0  0
   -1.4619    0.9974   -0.9321 C   0  0  0  0  0  0  0  0  0  0  0  0
   -1.3039   -0.5188   -0.7197 C   0  0  0  0  0  0  0  0  0  0  0  0
   -2.5390   -1.1631   -0.0668 N   0  0  1  0  0  0  0  0  0  0  0  0
   -2.6020   -2.6530   -0.3722 C   0  0  0  0  0  0  0  0  0  0  0  0
   -1.4945   -3.4404    0.3039 C   0  0  0  0  0  0  0  0  0  0  0  0
   -2.6953   -0.7976    1.3995 C   0  0  0  0  0  0  0  0  0  0  0  0
   -3.9538   -1.3967    2.0018 C   0  0  0  0  0  0  0  0  0  0  0  0
    1.6837    3.3791   -0.3411 C   0  0  0  0  0  0  0  0  0  0  0  0
    2.7143   -0.3016    1.7884 H   0  0  0  0  0  0  0  0  0  0  0  0
    2.2438    0.3027    3.3697 H   0  0  0  0  0  0  0  0  0  0  0  0
    3.8100    2.4162    2.5670 H   0  0  0  0  0  0  0  0  0  0  0  0
    4.3566    1.0686    3.5657 H   0  0  0  0  0  0  0  0  0  0  0  0
    5.2226   -0.1490    1.6497 H   0  0  0  0  0  0  0  0  0  0  0  0
    4.5882    1.0438    0.5213 H   0  0  0  0  0  0  0  0  0  0  0  0
    7.0122    1.3806    0.9383 H   0  0  0  0  0  0  0  0  0  0  0  0
    6.0802    2.7871    1.4718 H   0  0  0  0  0  0  0  0  0  0  0  0
    6.6974    1.6252    2.6638 H   0  0  0  0  0  0  0  0  0  0  0  0
   -0.9096    1.2972   -1.8287 H   0  0  0  0  0  0  0  0  0  0  0  0
   -2.5106    1.2668   -1.0940 H   0  0  0  0  0  0  0  0  0  0  0  0
   -0.4388   -0.7974   -0.1117 H   0  0  0  0  0  0  0  0  0  0  0  0
   -1.2138   -0.9884   -1.7067 H   0  0  0  0  0  0  0  0  0  0  0  0
   -3.3575   -0.7625   -0.5434 H   0  0  0  0  0  0  0  0  0  0  0  0
   -3.5906   -3.0099   -0.0681 H   0  0  0  0  0  0  0  0  0  0  0  0
   -2.5458   -2.7560   -1.4611 H   0  0  0  0  0  0  0  0  0  0  0  0
   -0.5040   -3.1044   -0.0120 H   0  0  0  0  0  0  0  0  0  0  0  0
   -1.5518   -3.3733    1.3939 H   0  0  0  0  0  0  0  0  0  0  0  0
   -1.5807   -4.4986    0.0378 H   0  0  0  0  0  0  0  0  0  0  0  0
   -2.7884    0.2884    1.4454 H   0  0  0  0  0  0  0  0  0  0  0  0
   -1.7937   -1.1124    1.9321 H   0  0  0  0  0  0  0  0  0  0  0  0
   -3.8784   -2.4819    2.1089 H   0  0  0  0  0  0  0  0  0  0  0  0
   -4.1174   -0.9856    3.0028 H   0  0  0  0  0  0  0  0  0  0  0  0
   -4.8346   -1.1660    1.3952 H   0  0  0  0  0  0  0  0  0  0  0  0
    1.3147    4.0877    0.4052 H   0  0  0  0  0  0  0  0  0  0  0  0
    1.0983    3.5115   -1.2558 H   0  0  0  0  0  0  0  0  0  0  0  0
    2.7193    3.6354   -0.5684 H   0  0  0  0  0  0  0  0  0  0  0  0
  1  2  2  0
  2  3  1  1
  3  4  1  0
  4  5  1  0
  5  6  1  0
  6  7  1  0
  2  8  1  0
  8  9  1  0
  9 10  1  0
 10 11  1  0
 11 12  1  0
 12 13  1  0
 11 14  1  0
 14 15  1  0
  2 16  1  0
  4 17  1  0
  4 18  1  0
  5 19  1  0
  5 20  1  0
  6 21  1  0
  6 22  1  0
  7 23  1  0
  7 24  1  0
  7 25  1  0
  9 26  1  0
  9 27  1  0
 10 28  1  0
 10 29  1  0
 11 30  1  6
 12 31  1  0
 12 32  1  0
 13 33  1  0
 13 34  1  0
 13 35  1  0
 14 36  1  0
 14 37  1  0
 15 38  1  0
 15 39  1  0
 15 40  1  0
 16 41  1  0
 16 42  1  0
 16 43  1  0
M  CHG  1  11   1
M  END
$$$$
