CVX
     RDKit          3D

 43 42  0  0  0  0  0  0  0  0999 V2000
   -0.7239    1.8968   -0.3505 O   0  0  0  0  0  0  0  0  0  0  0  0
    0.7596    1.8864   -0.0873 P   0  0  2  0  0  0  0  0  0  0  0  0
    1.4292    0.6068    0.6357 O   0  0  0  0  0  0  0  0  0  0  0  0
    2.8205    0.3541    0.4924 C   0  0  0  0  0  0  0  0  0  0  0  0
    3.0673   -1.1247    0.7639 C   0  0  0  0  0  0  0  0  0  0  0  0
    4.5439   -1.5143    0.7358 C   0  0  0  0  0  0  0  0  0  0  0  0
    5.1855   -1.3581   -0.6342 C   0  0  0  0  0  0  0  0  0  0  0  0
    1.1264    0.8880   -2.1940 S   0  0  0  0  0  0  0  0  0  0  0  0
   -0.5357    0.3116   -2.6550 C   0  0  0  0  0  0  0  0  0  0  0  0
   -1.0411   -0.7841   -1.7035 C   0  0  0  0  0  0  0  0  0  0  0  0
   -2.5623   -0.9460   -1.7217 N   0  0  1  0  0  0  0  0  0  0  0  0
   -3.2542    0.2231   -1.0287 C   0  0  0  0  0  0  0  0  0  0  0  0
   -4.7058   -0.0963   -0.7250 C   0  0  0  0  0  0  0  0  0  0  0  0
   -3.1119   -1.3005   -3.0895 C   0  0  0  0  0  0  0  0  0  0  0  0
   -4.0033   -2.5265   -2.9965 C   0  0  0  0  0  0  0  0  0  0  0  0
    1.7597    3.2777   -0.5726 C   0  0  0  0  0  0  0  0  0  0  0  0
    3.3617    0.9723    1.2156 H   0  0  0  0  0  0  0  0  0  0  0  0
    3.1455    0.6251   -0.5158 H   0  0  0  0  0  0  0  0  0  0  0  0
    2.5030   -1.7274    0.0413 H   0  0  0  0  0  0  0  0  0  0  0  0
    2.6500   -1.3795    1.7467 H   0  0  0  0  0  0  0  0  0  0  0  0
    5.1008   -0.9198    1.4695 H   0  0  0  0  0  0  0  0  0  0  0  0
    4.6330   -2.5627    1.0446 H   0  0  0  0  0  0  0  0  0  0  0  0
    4.6305   -1.9168   -1.3942 H   0  0  0  0  0  0  0  0  0  0  0  0
    5.2302   -0.3086   -0.9393 H   0  0  0  0  0  0  0  0  0  0  0  0
    6.2112   -1.7402   -0.6140 H   0  0  0  0  0  0  0  0  0  0  0  0
   -1.1954    1.1822   -2.6736 H   0  0  0  0  0  0  0  0  0  0  0  0
   -0.4817   -0.0733   -3.6780 H   0  0  0  0  0  0  0  0  0  0  0  0
   -0.7725   -0.6143   -0.6564 H   0  0  0  0  0  0  0  0  0  0  0  0
   -0.6297   -1.7597   -1.9892 H   0  0  0  0  0  0  0  0  0  0  0  0
   -2.7300   -1.7530   -1.1061 H   0  0  0  0  0  0  0  0  0  0  0  0
   -3.1670    1.1045   -1.6699 H   0  0  0  0  0  0  0  0  0  0  0  0
   -2.7253    0.3902   -0.0863 H   0  0  0  0  0  0  0  0  0  0  0  0
   -5.3023   -0.1688   -1.6390 H   0  0  0  0  0  0  0  0  0  0  0  0
   -4.8018   -1.0332   -0.1671 H   0  0  0  0  0  0  0  0  0  0  0  0
   -5.1423    0.7025   -0.1164 H   0  0  0  0  0  0  0  0  0  0  0  0
   -2.2695   -1.5286   -3.7498 H   0  0  0  0  0  0  0  0  0  0  0  0
   -3.6423   -0.4298   -3.4868 H   0  0  0  0  0  0  0  0  0  0  0  0
   -3.4490   -3.3859   -2.6046 H   0  0  0  0  0  0  0  0  0  0  0  0
   -4.3746   -2.7933   -3.9912 H   0  0  0  0  0  0  0  0  0  0  0  0
   -4.8703   -2.3593   -2.3524 H   0  0  0  0  0  0  0  0  0  0  0  0
    1.8666    3.9802    0.2586 H   0  0  0  0  0  0  0  0  0  0  0  0
    1.2930    3.8071   -1.4082 H   0  0  0  0  0  0  0  0  0  0  0  0
    2.7579    2.9639   -0.8892 H   0  0  0  0  0  0  0  0  0  0  0  0
  1  2  2  0
  2  3  1  1
  3  4  1  0
  4  5  1  0
  5  6  1  0
  6  7  1  0
  2  8  1  0
  8  9  1  0
  9 10  1  0
 10 11  1  0
 11 12  1  0
 12 13  1  0
 11 14  1  0
 14 15  1  0
  2 16  1  0
  4 17  1  0
  4 18  1  0
  5 19  1  0
  5 20  1  0
  6 21  1  0
  6 22  1  0
  7 23  1  0
  7 24  1  0
  7 25  1  0
  9 26  1  0
  9 27  1  0
 10 28  1  0
 10 29  1  0
 11 30  1  6
 12 31  1  0
 12 32  1  0
 13 33  1  0
 13 34  1  0
 13 35  1  0
 14 36  1  0
 14 37  1  0
 15 38  1  0
 15 39  1  0
 15 40  1  0
 16 41  1  0
 16 42  1  0
 16 43  1  0
M  CHG  1  11   1
M  END
$$$$
