CVX
     RDKit          3D

 43 42  0  0  0  0  0  0  0  0999 V2000
   -0.7268    1.9027   -0.3538 O   0  0  0  0  0  0  0  0  0  0  0  0
    0.7509    1.8836   -0.0875 P   0  0  1  0  0  0  0  0  0  0  0  0
    1.4403    0.6117    0.6353 O   0  0  0  0  0  0  0  0  0  0  0  0
    1.4274    0.5629    2.0575 C   0  0  0  0  0  0  0  0  0  0  0  0
    1.6267   -0.8856    2.4917 C   0  0  0  0  0  0  0  0  0  0  0  0
    1.4845   -1.0891    3.9978 C   0  0  0  0  0  0  0  0  0  0  0  0
    2.5854   -0.4209    4.8052 C   0  0  0  0  0  0  0  0  0  0  0  0
    1.1177    0.8852   -2.1942 S   0  0  0  0  0  0  0  0  0  0  0  0
   -0.5488    0.6972   -2.8937 C   0  0  0  0  0  0  0  0  0  0  0  0
   -1.4871   -0.2852   -2.1732 C   0  0  0  0  0  0  0  0  0  0  0  0
   -1.0398   -1.7475   -2.1375 N   0  0  2  0  0  0  0  0  0  0  0  0
   -0.0290   -2.0371   -1.0372 C   0  0  0  0  0  0  0  0  0  0  0  0
   -0.2852   -3.4081   -0.4362 C   0  0  0  0  0  0  0  0  0  0  0  0
   -0.6282   -2.3422   -3.4690 C   0  0  0  0  0  0  0  0  0  0  0  0
   -1.7945   -2.3583   -4.4407 C   0  0  0  0  0  0  0  0  0  0  0  0
    1.7603    3.2697   -0.5687 C   0  0  0  0  0  0  0  0  0  0  0  0
    2.2363    1.1978    2.4274 H   0  0  0  0  0  0  0  0  0  0  0  0
    0.4739    0.9447    2.4359 H   0  0  0  0  0  0  0  0  0  0  0  0
    0.8913   -1.5154    1.9755 H   0  0  0  0  0  0  0  0  0  0  0  0
    2.6099   -1.2395    2.1508 H   0  0  0  0  0  0  0  0  0  0  0  0
    0.5115   -0.7159    4.3310 H   0  0  0  0  0  0  0  0  0  0  0  0
    1.5005   -2.1633    4.2111 H   0  0  0  0  0  0  0  0  0  0  0  0
    3.5697   -0.7944    4.5089 H   0  0  0  0  0  0  0  0  0  0  0  0
    2.5739    0.6644    4.6769 H   0  0  0  0  0  0  0  0  0  0  0  0
    2.4518   -0.6269    5.8698 H   0  0  0  0  0  0  0  0  0  0  0  0
   -1.0150    1.6878   -2.8934 H   0  0  0  0  0  0  0  0  0  0  0  0
   -0.4342    0.4212   -3.9470 H   0  0  0  0  0  0  0  0  0  0  0  0
   -1.6946    0.0036   -1.1395 H   0  0  0  0  0  0  0  0  0  0  0  0
   -2.4566   -0.2876   -2.6847 H   0  0  0  0  0  0  0  0  0  0  0  0
   -1.8899   -2.2512   -1.8524 H   0  0  0  0  0  0  0  0  0  0  0  0
   -0.1526   -1.2816   -0.2565 H   0  0  0  0  0  0  0  0  0  0  0  0
    0.9750   -1.9730   -1.4650 H   0  0  0  0  0  0  0  0  0  0  0  0
   -1.2899   -3.4688   -0.0071 H   0  0  0  0  0  0  0  0  0  0  0  0
    0.4338   -3.5997    0.3676 H   0  0  0  0  0  0  0  0  0  0  0  0
   -0.1814   -4.2077   -1.1741 H   0  0  0  0  0  0  0  0  0  0  0  0
   -0.3047   -3.3699   -3.2809 H   0  0  0  0  0  0  0  0  0  0  0  0
    0.2243   -1.7758   -3.8545 H   0  0  0  0  0  0  0  0  0  0  0  0
   -2.6565   -2.8788   -4.0141 H   0  0  0  0  0  0  0  0  0  0  0  0
   -2.1058   -1.3485   -4.7223 H   0  0  0  0  0  0  0  0  0  0  0  0
   -1.5078   -2.8801   -5.3589 H   0  0  0  0  0  0  0  0  0  0  0  0
    1.3104    3.7847   -1.4215 H   0  0  0  0  0  0  0  0  0  0  0  0
    2.7627    2.9415   -0.8589 H   0  0  0  0  0  0  0  0  0  0  0  0
    1.8551    3.9888    0.2481 H   0  0  0  0  0  0  0  0  0  0  0  0
  1  2  2  0
  2  3  1  1
  3  4  1  0
  4  5  1  0
  5  6  1  0
  6  7  1  0
  2  8  1  0
  8  9  1  0
  9 10  1  0
 10 11  1  0
 11 12  1  0
 12 13  1  0
 11 14  1  0
 14 15  1  0
  2 16  1  0
  4 17  1  0
  4 18  1  0
  5 19  1  0
  5 20  1  0
  6 21  1  0
  6 22  1  0
  7 23  1  0
  7 24  1  0
  7 25  1  0
  9 26  1  0
  9 27  1  0
 10 28  1  0
 10 29  1  0
 11 30  1  1
 12 31  1  0
 12 32  1  0
 13 33  1  0
 13 34  1  0
 13 35  1  0
 14 36  1  0
 14 37  1  0
 15 38  1  0
 15 39  1  0
 15 40  1  0
 16 41  1  0
 16 42  1  0
 16 43  1  0
M  CHG  1  11   1
M  END
$$$$
