RVX
     RDKit          3D

 43 42  0  0  0  0  0  0  0  0999 V2000
   -0.7113    0.9869   -2.4150 C   0  0  0  0  0  0  0  0  0  0  0  0
   -0.6585    0.6059   -0.9430 C   0  0  0  0  0  0  0  0  0  0  0  0
   -1.9912    0.0231   -0.4988 N   0  0  1  0  0  0  0  0  0  0  0  0
   -2.1590   -1.4319   -0.9034 C   0  0  0  0  0  0  0  0  0  0  0  0
   -3.6205   -1.8432   -0.8464 C   0  0  0  0  0  0  0  0  0  0  0  0
   -2.3468    0.3425    0.9495 C   0  0  0  0  0  0  0  0  0  0  0  0
   -1.5679   -0.4085    2.0403 C   0  0  0  0  0  0  0  0  0  0  0  0
    0.1128    0.2184    2.3141 S   0  0  0  0  0  0  0  0  0  0  0  0
    1.5564   -1.5286    1.6554 P   0  0  2  0  0  0  0  0  0  0  0  0
    0.4985   -2.0508    0.7222 O   0  0  0  0  0  0  0  0  0  0  0  0
    1.6238   -2.1081    3.3403 C   0  0  0  0  0  0  0  0  0  0  0  0
    2.6477   -0.4430    1.1680 O   0  0  0  0  0  0  0  0  0  0  0  0
    3.8147   -0.9024    0.5002 C   0  0  0  0  0  0  0  0  0  0  0  0
    4.4262    0.2515   -0.3008 C   0  0  2  0  0  0  0  0  0  0  0  0
    3.4649    0.7449   -1.3850 C   0  0  0  0  0  0  0  0  0  0  0  0
    5.7543   -0.1761   -0.9226 C   0  0  0  0  0  0  0  0  0  0  0  0
   -1.5182    1.7011   -2.6105 H   0  0  0  0  0  0  0  0  0  0  0  0
    0.2317    1.4588   -2.7118 H   0  0  0  0  0  0  0  0  0  0  0  0
   -0.8617    0.1166   -3.0602 H   0  0  0  0  0  0  0  0  0  0  0  0
   -0.4770    1.5103   -0.3546 H   0  0  0  0  0  0  0  0  0  0  0  0
    0.1242   -0.1305   -0.7522 H   0  0  0  0  0  0  0  0  0  0  0  0
   -2.6927    0.5407   -1.0440 H   0  0  0  0  0  0  0  0  0  0  0  0
   -1.5429   -2.0542   -0.2559 H   0  0  0  0  0  0  0  0  0  0  0  0
   -1.7993   -1.5315   -1.9315 H   0  0  0  0  0  0  0  0  0  0  0  0
   -4.2515   -1.1533   -1.4170 H   0  0  0  0  0  0  0  0  0  0  0  0
   -3.9896   -1.8855    0.1827 H   0  0  0  0  0  0  0  0  0  0  0  0
   -3.7438   -2.8439   -1.2749 H   0  0  0  0  0  0  0  0  0  0  0  0
   -3.4135    0.1122    1.0484 H   0  0  0  0  0  0  0  0  0  0  0  0
   -2.2600    1.4295    1.0644 H   0  0  0  0  0  0  0  0  0  0  0  0
   -2.0963   -0.2560    2.9878 H   0  0  0  0  0  0  0  0  0  0  0  0
   -1.5570   -1.4875    1.8733 H   0  0  0  0  0  0  0  0  0  0  0  0
    2.2613   -2.9927    3.4224 H   0  0  0  0  0  0  0  0  0  0  0  0
    0.6237   -2.3784    3.6929 H   0  0  0  0  0  0  0  0  0  0  0  0
    2.0243   -1.3343    4.0024 H   0  0  0  0  0  0  0  0  0  0  0  0
    3.5641   -1.7387   -0.1611 H   0  0  0  0  0  0  0  0  0  0  0  0
    4.5224   -1.2596    1.2552 H   0  0  0  0  0  0  0  0  0  0  0  0
    4.6100    1.0913    0.3813 H   0  0  0  0  0  0  0  0  0  0  0  0
    3.2171   -0.0562   -2.0896 H   0  0  0  0  0  0  0  0  0  0  0  0
    3.9123    1.5677   -1.9526 H   0  0  0  0  0  0  0  0  0  0  0  0
    2.5294    1.1131   -0.9500 H   0  0  0  0  0  0  0  0  0  0  0  0
    6.2159    0.6569   -1.4647 H   0  0  0  0  0  0  0  0  0  0  0  0
    6.4580   -0.5031   -0.1495 H   0  0  0  0  0  0  0  0  0  0  0  0
    5.6158   -1.0031   -1.6270 H   0  0  0  0  0  0  0  0  0  0  0  0
  1  2  1  0
  2  3  1  0
  3  4  1  0
  4  5  1  0
  3  6  1  0
  6  7  1  0
  7  8  1  0
  8  9  1  0
  9 10  2  0
  9 11  1  0
  9 12  1  6
 12 13  1  0
 13 14  1  0
 14 15  1  0
 14 16  1  0
  1 17  1  0
  1 18  1  0
  1 19  1  0
  2 20  1  0
  2 21  1  0
  3 22  1  1
  4 23  1  0
  4 24  1  0
  5 25  1  0
  5 26  1  0
  5 27  1  0
  6 28  1  0
  6 29  1  0
  7 30  1  0
  7 31  1  0
 11 32  1  0
 11 33  1  0
 11 34  1  0
 13 35  1  0
 13 36  1  0
 14 37  1  1
 15 38  1  0
 15 39  1  0
 15 40  1  0
 16 41  1  0
 16 42  1  0
 16 43  1  0
M  CHG  1   3   1
M  END
$$$$
