VX
     RDKit          3D

 45 44  0  0  0  0  0  0  0  0999 V2000
    3.2263    0.2358    3.3448 C   0  0  0  0  0  0  0  0  0  0  0  0
    3.5224   -0.5930    2.1121 C   0  0  0  0  0  0  0  0  0  0  0  0
    2.9865    0.0733    0.9813 O   0  0  0  0  0  0  0  0  0  0  0  0
    2.6918   -0.7387   -0.3816 P   0  0  0  0  0  0  0  0  0  0  0  0
    3.5469   -2.2734   -0.6832 C   0  0  0  0  0  0  0  0  0  0  0  0
    1.7090   -0.2146   -1.3916 O   0  0  0  0  0  0  0  0  0  0  0  0
    0.9551   -1.9181    0.6965 S   0  0  0  0  0  0  0  0  0  0  0  0
   -0.3341   -1.9954   -0.5878 C   0  0  0  0  0  0  0  0  0  0  0  0
   -1.1886   -0.7173   -0.6713 C   0  0  0  0  0  0  0  0  0  0  0  0
   -1.7048   -0.2613    0.7143 N   0  0  0  0  0  0  0  0  0  0  0  0
   -3.1049   -0.7929    1.0727 C   0  0  0  0  0  0  0  0  0  0  0  0
   -3.1460   -2.3175    1.0588 C   0  0  0  0  0  0  0  0  0  0  0  0
   -4.1918   -0.1977    0.1790 C   0  0  0  0  0  0  0  0  0  0  0  0
   -1.5249    1.2668    0.9336 C   0  0  0  0  0  0  0  0  0  0  0  0
   -2.1608    1.7247    2.2504 C   0  0  0  0  0  0  0  0  0  0  0  0
   -0.0371    1.6259    0.9903 C   0  0  0  0  0  0  0  0  0  0  0  0
    3.6574    1.2378    3.2493 H   0  0  0  0  0  0  0  0  0  0  0  0
    2.1463    0.3647    3.4715 H   0  0  0  0  0  0  0  0  0  0  0  0
    3.6329   -0.2396    4.2418 H   0  0  0  0  0  0  0  0  0  0  0  0
    4.6034   -0.6989    1.9809 H   0  0  0  0  0  0  0  0  0  0  0  0
    3.0798   -1.5879    2.2151 H   0  0  0  0  0  0  0  0  0  0  0  0
    2.9562   -2.9119   -1.3464 H   0  0  0  0  0  0  0  0  0  0  0  0
    3.7225   -2.8235    0.2452 H   0  0  0  0  0  0  0  0  0  0  0  0
    4.5123   -2.0852   -1.1613 H   0  0  0  0  0  0  0  0  0  0  0  0
   -0.9549   -2.8656   -0.3676 H   0  0  0  0  0  0  0  0  0  0  0  0
    0.1329   -2.1936   -1.5581 H   0  0  0  0  0  0  0  0  0  0  0  0
   -0.6218    0.1037   -1.1123 H   0  0  0  0  0  0  0  0  0  0  0  0
   -2.0505   -0.8786   -1.3230 H   0  0  0  0  0  0  0  0  0  0  0  0
   -1.0572   -0.6958    1.3914 H   0  0  0  0  0  0  0  0  0  0  0  0
   -3.2815   -0.4981    2.1111 H   0  0  0  0  0  0  0  0  0  0  0  0
   -2.3215   -2.7450    1.6380 H   0  0  0  0  0  0  0  0  0  0  0  0
   -4.0794   -2.6700    1.5127 H   0  0  0  0  0  0  0  0  0  0  0  0
   -3.1191   -2.7206    0.0421 H   0  0  0  0  0  0  0  0  0  0  0  0
   -4.1739    0.8953    0.1734 H   0  0  0  0  0  0  0  0  0  0  0  0
   -4.1164   -0.5424   -0.8563 H   0  0  0  0  0  0  0  0  0  0  0  0
   -5.1797   -0.5008    0.5443 H   0  0  0  0  0  0  0  0  0  0  0  0
   -2.0052    1.7669    0.0855 H   0  0  0  0  0  0  0  0  0  0  0  0
   -3.2528    1.6736    2.2214 H   0  0  0  0  0  0  0  0  0  0  0  0
   -1.8033    1.1289    3.0973 H   0  0  0  0  0  0  0  0  0  0  0  0
   -1.9131    2.7729    2.4539 H   0  0  0  0  0  0  0  0  0  0  0  0
    0.0912    2.6890    1.2249 H   0  0  0  0  0  0  0  0  0  0  0  0
    0.4666    1.4661    0.0368 H   0  0  0  0  0  0  0  0  0  0  0  0
    0.4851    1.0543    1.7642 H   0  0  0  0  0  0  0  0  0  0  0  0
    4.0900    0.2108   -1.2496 O   0  0  0  0  0  0  0  0  0  0  0  0
    4.7098    0.6318   -0.6025 H   0  0  0  0  0  0  0  0  0  0  0  0
  1  2  1  0
  2  3  1  0
  4  3  1  1
  4  5  1  0
  4  6  2  0
  7  8  1  0
  8  9  1  0
  9 10  1  0
 10 11  1  0
 11 12  1  0
 11 13  1  0
 10 14  1  0
 14 15  1  0
 14 16  1  0
  1 17  1  0
  1 18  1  0
  1 19  1  0
  2 20  1  0
  2 21  1  0
  5 22  1  0
  5 23  1  0
  5 24  1  0
  8 25  1  0
  8 26  1  0
  9 27  1  0
  9 28  1  0
 10 29  1  0
 11 30  1  0
 12 31  1  0
 12 32  1  0
 12 33  1  0
 13 34  1  0
 13 35  1  0
 13 36  1  0
 14 37  1  0
 15 38  1  0
 15 39  1  0
 15 40  1  0
 16 41  1  0
 16 42  1  0
 16 43  1  0
 44 45  1  0
  4 44  1  0
  4  7  1  0
M  CHG  1  10   1
M  END
$$$$
