VX
     RDKit          3D

 45 44  0  0  0  0  0  0  0  0999 V2000
    5.1030    0.8828    1.7714 C   0  0  0  0  0  0  0  0  0  0  0  0
    3.8671    1.1818    0.9464 C   0  0  0  0  0  0  0  0  0  0  0  0
    2.9972    0.0610    0.9852 O   0  0  0  0  0  0  0  0  0  0  0  0
    2.6848   -0.7318   -0.3855 P   0  0  0  0  0  0  0  0  0  0  0  0
    3.5463   -2.2641   -0.6740 C   0  0  0  0  0  0  0  0  0  0  0  0
    1.7060   -0.2185   -1.4008 O   0  0  0  0  0  0  0  0  0  0  0  0
    0.9480   -1.9112    0.6926 S   0  0  0  0  0  0  0  0  0  0  0  0
   -0.2883   -0.5879    0.9271 C   0  0  0  0  0  0  0  0  0  0  0  0
   -1.6347   -1.1673    1.3625 C   0  0  0  0  0  0  0  0  0  0  0  0
   -2.1407   -2.2810    0.4343 N   0  0  0  0  0  0  0  0  0  0  0  0
   -2.5895   -1.8444   -0.9840 C   0  0  0  0  0  0  0  0  0  0  0  0
   -1.4345   -1.9139   -1.9769 C   0  0  0  0  0  0  0  0  0  0  0  0
   -3.2957   -0.4942   -0.9844 C   0  0  0  0  0  0  0  0  0  0  0  0
   -3.1958   -3.2362    1.0418 C   0  0  0  0  0  0  0  0  0  0  0  0
   -2.9559   -4.6368    0.4680 C   0  0  0  0  0  0  0  0  0  0  0  0
   -3.1637   -3.3096    2.5661 C   0  0  0  0  0  0  0  0  0  0  0  0
    5.6574    0.0407    1.3453 H   0  0  0  0  0  0  0  0  0  0  0  0
    5.7631    1.7532    1.8122 H   0  0  0  0  0  0  0  0  0  0  0  0
    4.8284    0.5990    2.7927 H   0  0  0  0  0  0  0  0  0  0  0  0
    3.3310    2.0371    1.3700 H   0  0  0  0  0  0  0  0  0  0  0  0
    4.1472    1.4310   -0.0821 H   0  0  0  0  0  0  0  0  0  0  0  0
    3.7602   -2.7708    0.2707 H   0  0  0  0  0  0  0  0  0  0  0  0
    4.4919   -2.0867   -1.1930 H   0  0  0  0  0  0  0  0  0  0  0  0
    2.9391   -2.9307   -1.2918 H   0  0  0  0  0  0  0  0  0  0  0  0
   -0.3909   -0.0071    0.0091 H   0  0  0  0  0  0  0  0  0  0  0  0
    0.0854    0.0935    1.6979 H   0  0  0  0  0  0  0  0  0  0  0  0
   -1.4759   -1.6053    2.3497 H   0  0  0  0  0  0  0  0  0  0  0  0
   -2.4144   -0.4078    1.4530 H   0  0  0  0  0  0  0  0  0  0  0  0
   -1.2950   -2.8600    0.3039 H   0  0  0  0  0  0  0  0  0  0  0  0
   -3.3209   -2.5902   -1.3150 H   0  0  0  0  0  0  0  0  0  0  0  0
   -0.7154   -1.1053   -1.8413 H   0  0  0  0  0  0  0  0  0  0  0  0
   -0.9079   -2.8717   -1.9131 H   0  0  0  0  0  0  0  0  0  0  0  0
   -1.8187   -1.8221   -2.9995 H   0  0  0  0  0  0  0  0  0  0  0  0
   -4.1104   -0.4705   -0.2535 H   0  0  0  0  0  0  0  0  0  0  0  0
   -2.6110    0.3323   -0.7735 H   0  0  0  0  0  0  0  0  0  0  0  0
   -3.7347   -0.3015   -1.9698 H   0  0  0  0  0  0  0  0  0  0  0  0
   -4.1771   -2.8574    0.7346 H   0  0  0  0  0  0  0  0  0  0  0  0
   -2.0012   -5.0428    0.8183 H   0  0  0  0  0  0  0  0  0  0  0  0
   -3.7472   -5.3223    0.7909 H   0  0  0  0  0  0  0  0  0  0  0  0
   -2.9421   -4.6449   -0.6250 H   0  0  0  0  0  0  0  0  0  0  0  0
   -3.4430   -2.3532    3.0184 H   0  0  0  0  0  0  0  0  0  0  0  0
   -2.1808   -3.6154    2.9403 H   0  0  0  0  0  0  0  0  0  0  0  0
   -3.8917   -4.0468    2.9252 H   0  0  0  0  0  0  0  0  0  0  0  0
    4.0831    0.2177   -1.2534 O   0  0  0  0  0  0  0  0  0  0  0  0
    4.7029    0.6386   -0.6063 H   0  0  0  0  0  0  0  0  0  0  0  0
  1  2  1  0
  2  3  1  0
  4  3  1  1
  4  5  1  0
  4  6  2  0
  7  8  1  0
  8  9  1  0
  9 10  1  0
 10 11  1  0
 11 12  1  0
 11 13  1  0
 10 14  1  0
 14 15  1  0
 14 16  1  0
  1 17  1  0
  1 18  1  0
  1 19  1  0
  2 20  1  0
  2 21  1  0
  5 22  1  0
  5 23  1  0
  5 24  1  0
  8 25  1  0
  8 26  1  0
  9 27  1  0
  9 28  1  0
 10 29  1  0
 11 30  1  0
 12 31  1  0
 12 32  1  0
 12 33  1  0
 13 34  1  0
 13 35  1  0
 13 36  1  0
 14 37  1  0
 15 38  1  0
 15 39  1  0
 15 40  1  0
 16 41  1  0
 16 42  1  0
 16 43  1  0
 44 45  1  0
  4 44  1  0
  4  7  1  0
M  CHG  1  10   1
M  END
$$$$
