VX
     RDKit          3D

 45 44  0  0  0  0  0  0  0  0999 V2000
    3.3267   -2.4950    0.7159 C   0  0  0  0  0  0  0  0  0  0  0  0
    3.7539   -1.0702    1.0014 C   0  0  0  0  0  0  0  0  0  0  0  0
    2.9857   -0.1974    0.1884 O   0  0  0  0  0  0  0  0  0  0  0  0
    2.8460    1.3637    0.5796 P   0  0  0  0  0  0  0  0  0  0  0  0
    4.0415    2.1411    1.6461 C   0  0  0  0  0  0  0  0  0  0  0  0
    1.6917    2.1627    0.0337 O   0  0  0  0  0  0  0  0  0  0  0  0
    1.5492    0.7760    2.4617 S   0  0  0  0  0  0  0  0  0  0  0  0
   -0.1421    1.1499    1.9111 C   0  0  0  0  0  0  0  0  0  0  0  0
   -0.5528    0.2754    0.7154 C   0  0  0  0  0  0  0  0  0  0  0  0
   -1.7945    0.8319    0.0082 N   0  0  0  0  0  0  0  0  0  0  0  0
   -2.6920   -0.2331   -0.6427 C   0  0  0  0  0  0  0  0  0  0  0  0
   -3.6337   -0.7909    0.4258 C   0  0  0  0  0  0  0  0  0  0  0  0
   -1.9041   -1.3537   -1.3195 C   0  0  0  0  0  0  0  0  0  0  0  0
   -1.4764    2.0632   -0.8690 C   0  0  0  0  0  0  0  0  0  0  0  0
   -0.8982    1.6918   -2.2275 C   0  0  0  0  0  0  0  0  0  0  0  0
   -2.7307    2.9282   -0.9990 C   0  0  0  0  0  0  0  0  0  0  0  0
    2.2622   -2.6288    0.9354 H   0  0  0  0  0  0  0  0  0  0  0  0
    3.9031   -3.2035    1.3172 H   0  0  0  0  0  0  0  0  0  0  0  0
    3.4658   -2.7350   -0.3435 H   0  0  0  0  0  0  0  0  0  0  0  0
    4.8126   -0.9397    0.7585 H   0  0  0  0  0  0  0  0  0  0  0  0
    3.6028   -0.8392    2.0599 H   0  0  0  0  0  0  0  0  0  0  0  0
    4.8944    2.5031    1.0652 H   0  0  0  0  0  0  0  0  0  0  0  0
    3.5919    2.9956    2.1599 H   0  0  0  0  0  0  0  0  0  0  0  0
    4.4113    1.4482    2.4069 H   0  0  0  0  0  0  0  0  0  0  0  0
   -0.8250    0.9706    2.7483 H   0  0  0  0  0  0  0  0  0  0  0  0
   -0.1899    2.2178    1.6867 H   0  0  0  0  0  0  0  0  0  0  0  0
    0.2202    0.1586   -0.0469 H   0  0  0  0  0  0  0  0  0  0  0  0
   -0.8136   -0.7157    1.1001 H   0  0  0  0  0  0  0  0  0  0  0  0
   -2.3679    1.2211    0.7669 H   0  0  0  0  0  0  0  0  0  0  0  0
   -3.3026    0.2781   -1.3922 H   0  0  0  0  0  0  0  0  0  0  0  0
   -4.3233   -1.5192   -0.0146 H   0  0  0  0  0  0  0  0  0  0  0  0
   -4.2377    0.0067    0.8717 H   0  0  0  0  0  0  0  0  0  0  0  0
   -3.0872   -1.2928    1.2308 H   0  0  0  0  0  0  0  0  0  0  0  0
   -1.3983   -2.0027   -0.5978 H   0  0  0  0  0  0  0  0  0  0  0  0
   -1.1550   -0.9786   -2.0193 H   0  0  0  0  0  0  0  0  0  0  0  0
   -2.5881   -1.9924   -1.8904 H   0  0  0  0  0  0  0  0  0  0  0  0
   -0.7380    2.6516   -0.3191 H   0  0  0  0  0  0  0  0  0  0  0  0
   -0.5963    2.5984   -2.7645 H   0  0  0  0  0  0  0  0  0  0  0  0
   -1.6272    1.1763   -2.8597 H   0  0  0  0  0  0  0  0  0  0  0  0
   -0.0078    1.0640   -2.1338 H   0  0  0  0  0  0  0  0  0  0  0  0
   -2.4887    3.8694   -1.5052 H   0  0  0  0  0  0  0  0  0  0  0  0
   -3.5173    2.4392   -1.5810 H   0  0  0  0  0  0  0  0  0  0  0  0
   -3.1401    3.1801   -0.0150 H   0  0  0  0  0  0  0  0  0  0  0  0
    3.8901    1.8369   -0.9357 O   0  0  0  0  0  0  0  0  0  0  0  0
    4.7606    2.2314   -0.6777 H   0  0  0  0  0  0  0  0  0  0  0  0
  1  2  1  0
  2  3  1  0
  4  3  1  1
  4  5  1  0
  4  6  2  0
  7  8  1  0
  8  9  1  0
  9 10  1  0
 10 11  1  0
 11 12  1  0
 11 13  1  0
 10 14  1  0
 14 15  1  0
 14 16  1  0
  1 17  1  0
  1 18  1  0
  1 19  1  0
  2 20  1  0
  2 21  1  0
  5 22  1  0
  5 23  1  0
  5 24  1  0
  8 25  1  0
  8 26  1  0
  9 27  1  0
  9 28  1  0
 10 29  1  0
 11 30  1  0
 12 31  1  0
 12 32  1  0
 12 33  1  0
 13 34  1  0
 13 35  1  0
 13 36  1  0
 14 37  1  0
 15 38  1  0
 15 39  1  0
 15 40  1  0
 16 41  1  0
 16 42  1  0
 16 43  1  0
 44 45  1  0
  4 44  1  0
  4  7  1  0
M  CHG  1  10   1
M  END
$$$$
