VX
     RDKit          3D

 45 44  0  0  0  0  0  0  0  0999 V2000
    2.9714    2.4724    0.7467 C   0  0  0  0  0  0  0  0  0  0  0  0
    3.8188    1.2260    0.9294 C   0  0  0  0  0  0  0  0  0  0  0  0
    2.9866    0.0774    0.9859 O   0  0  0  0  0  0  0  0  0  0  0  0
    2.6916   -0.7396   -0.3830 P   0  0  0  0  0  0  0  0  0  0  0  0
    3.5472   -2.2760   -0.6855 C   0  0  0  0  0  0  0  0  0  0  0  0
    1.7088   -0.2152   -1.3925 O   0  0  0  0  0  0  0  0  0  0  0  0
    0.9549   -1.9191    0.6950 S   0  0  0  0  0  0  0  0  0  0  0  0
    0.3962   -0.7783    1.9985 C   0  0  0  0  0  0  0  0  0  0  0  0
   -0.0204    0.6158    1.5040 C   0  0  0  0  0  0  0  0  0  0  0  0
   -1.5074    0.7646    1.1514 N   0  0  0  0  0  0  0  0  0  0  0  0
   -1.8294    0.1118   -0.2140 C   0  0  0  0  0  0  0  0  0  0  0  0
   -2.5594    1.1156   -1.1111 C   0  0  0  0  0  0  0  0  0  0  0  0
   -2.5815   -1.2071   -0.0870 C   0  0  0  0  0  0  0  0  0  0  0  0
   -2.5085    0.5575    2.3076 C   0  0  0  0  0  0  0  0  0  0  0  0
   -1.9612    1.1174    3.6257 C   0  0  0  0  0  0  0  0  0  0  0  0
   -3.8146    1.2870    1.9870 C   0  0  0  0  0  0  0  0  0  0  0  0
    3.5902    3.3690    0.7778 H   0  0  0  0  0  0  0  0  0  0  0  0
    2.4658    2.4474   -0.2218 H   0  0  0  0  0  0  0  0  0  0  0  0
    2.1949    2.5513    1.5176 H   0  0  0  0  0  0  0  0  0  0  0  0
    4.3570    1.2856    1.8799 H   0  0  0  0  0  0  0  0  0  0  0  0
    4.5547    1.1422    0.1221 H   0  0  0  0  0  0  0  0  0  0  0  0
    2.9306   -2.9531   -1.2874 H   0  0  0  0  0  0  0  0  0  0  0  0
    3.7804   -2.7763    0.2605 H   0  0  0  0  0  0  0  0  0  0  0  0
    4.4837   -2.1087   -1.2173 H   0  0  0  0  0  0  0  0  0  0  0  0
   -0.4063   -1.2734    2.5621 H   0  0  0  0  0  0  0  0  0  0  0  0
    1.2429   -0.6666    2.6843 H   0  0  0  0  0  0  0  0  0  0  0  0
    0.5393    0.9592    0.6309 H   0  0  0  0  0  0  0  0  0  0  0  0
    0.1790    1.3583    2.2843 H   0  0  0  0  0  0  0  0  0  0  0  0
   -1.5680    1.7737    0.9606 H   0  0  0  0  0  0  0  0  0  0  0  0
   -0.8709   -0.0787   -0.7013 H   0  0  0  0  0  0  0  0  0  0  0  0
   -1.9851    2.0411   -1.2122 H   0  0  0  0  0  0  0  0  0  0  0  0
   -3.5545    1.3762   -0.7444 H   0  0  0  0  0  0  0  0  0  0  0  0
   -2.6795    0.6965   -2.1177 H   0  0  0  0  0  0  0  0  0  0  0  0
   -2.0689   -1.9097    0.5838 H   0  0  0  0  0  0  0  0  0  0  0  0
   -3.6069   -1.0726    0.2721 H   0  0  0  0  0  0  0  0  0  0  0  0
   -2.6512   -1.6865   -1.0709 H   0  0  0  0  0  0  0  0  0  0  0  0
   -2.6746   -0.5174    2.4210 H   0  0  0  0  0  0  0  0  0  0  0  0
   -1.6712    2.1709    3.5282 H   0  0  0  0  0  0  0  0  0  0  0  0
   -1.0964    0.5498    3.9806 H   0  0  0  0  0  0  0  0  0  0  0  0
   -2.7138    1.0491    4.4171 H   0  0  0  0  0  0  0  0  0  0  0  0
   -4.4652    1.3392    2.8668 H   0  0  0  0  0  0  0  0  0  0  0  0
   -3.6263    2.3103    1.6564 H   0  0  0  0  0  0  0  0  0  0  0  0
   -4.3903    0.7779    1.2124 H   0  0  0  0  0  0  0  0  0  0  0  0
    4.0898    0.2100   -1.2509 O   0  0  0  0  0  0  0  0  0  0  0  0
    4.7096    0.6309   -0.6037 H   0  0  0  0  0  0  0  0  0  0  0  0
  1  2  1  0
  2  3  1  0
  4  3  1  1
  4  5  1  0
  4  6  2  0
  7  8  1  0
  8  9  1  0
  9 10  1  0
 10 11  1  0
 11 12  1  0
 11 13  1  0
 10 14  1  0
 14 15  1  0
 14 16  1  0
  1 17  1  0
  1 18  1  0
  1 19  1  0
  2 20  1  0
  2 21  1  0
  5 22  1  0
  5 23  1  0
  5 24  1  0
  8 25  1  0
  8 26  1  0
  9 27  1  0
  9 28  1  0
 10 29  1  0
 11 30  1  0
 12 31  1  0
 12 32  1  0
 12 33  1  0
 13 34  1  0
 13 35  1  0
 13 36  1  0
 14 37  1  0
 15 38  1  0
 15 39  1  0
 15 40  1  0
 16 41  1  0
 16 42  1  0
 16 43  1  0
 44 45  1  0
  4 44  1  0
  4  7  1  0
M  CHG  1  10   1
M  END
$$$$
