VX
     RDKit          3D

 45 44  0  0  0  0  0  0  0  0999 V2000
    4.9369    1.4850    0.6875 C   0  0  0  0  0  0  0  0  0  0  0  0
    3.4475    1.4041    0.9494 C   0  0  0  0  0  0  0  0  0  0  0  0
    2.9990    0.0579    0.9846 O   0  0  0  0  0  0  0  0  0  0  0  0
    2.6842   -0.7305   -0.3850 P   0  0  0  0  0  0  0  0  0  0  0  0
    3.5469   -2.2628   -0.6717 C   0  0  0  0  0  0  0  0  0  0  0  0
    1.7041   -0.2179   -1.4031 O   0  0  0  0  0  0  0  0  0  0  0  0
    0.9475   -1.9100    0.6931 S   0  0  0  0  0  0  0  0  0  0  0  0
   -0.0072   -2.6766   -0.6573 C   0  0  0  0  0  0  0  0  0  0  0  0
   -0.8617   -1.6700   -1.4483 C   0  0  0  0  0  0  0  0  0  0  0  0
   -1.5546   -0.6507   -0.5249 N   0  0  0  0  0  0  0  0  0  0  0  0
   -1.5699    0.7487   -1.1510 C   0  0  0  0  0  0  0  0  0  0  0  0
   -2.3460    0.8231   -2.4628 C   0  0  0  0  0  0  0  0  0  0  0  0
   -2.0084    1.8164   -0.1595 C   0  0  0  0  0  0  0  0  0  0  0  0
   -2.7739   -1.2470    0.1811 C   0  0  0  0  0  0  0  0  0  0  0  0
   -2.8973   -0.7231    1.6103 C   0  0  0  0  0  0  0  0  0  0  0  0
   -4.0643   -1.1002   -0.6068 C   0  0  0  0  0  0  0  0  0  0  0  0
    5.1717    1.1612   -0.3301 H   0  0  0  0  0  0  0  0  0  0  0  0
    5.2946    2.5119    0.8076 H   0  0  0  0  0  0  0  0  0  0  0  0
    5.4878    0.8348    1.3742 H   0  0  0  0  0  0  0  0  0  0  0  0
    2.8835    1.9761    0.2065 H   0  0  0  0  0  0  0  0  0  0  0  0
    3.2281    1.8408    1.9289 H   0  0  0  0  0  0  0  0  0  0  0  0
    2.9314   -2.9389   -1.2723 H   0  0  0  0  0  0  0  0  0  0  0  0
    3.7725   -2.7595    0.2765 H   0  0  0  0  0  0  0  0  0  0  0  0
    4.4841   -2.1004   -1.2075 H   0  0  0  0  0  0  0  0  0  0  0  0
    0.6768   -3.1973   -1.3349 H   0  0  0  0  0  0  0  0  0  0  0  0
   -0.6510   -3.4380   -0.2047 H   0  0  0  0  0  0  0  0  0  0  0  0
   -0.2345   -1.1182   -2.1526 H   0  0  0  0  0  0  0  0  0  0  0  0
   -1.6405   -2.1786   -2.0276 H   0  0  0  0  0  0  0  0  0  0  0  0
   -0.8562   -0.5447    0.2292 H   0  0  0  0  0  0  0  0  0  0  0  0
   -0.5173    0.9540   -1.3791 H   0  0  0  0  0  0  0  0  0  0  0  0
   -3.4275    0.8430   -2.3155 H   0  0  0  0  0  0  0  0  0  0  0  0
   -2.0913    1.7529   -2.9843 H   0  0  0  0  0  0  0  0  0  0  0  0
   -2.1037    0.0006   -3.1406 H   0  0  0  0  0  0  0  0  0  0  0  0
   -3.0849    1.7887    0.0271 H   0  0  0  0  0  0  0  0  0  0  0  0
   -1.4756    1.7233    0.7920 H   0  0  0  0  0  0  0  0  0  0  0  0
   -1.7832    2.8121   -0.5591 H   0  0  0  0  0  0  0  0  0  0  0  0
   -2.5643   -2.3188    0.2693 H   0  0  0  0  0  0  0  0  0  0  0  0
   -3.2599    0.3056    1.6549 H   0  0  0  0  0  0  0  0  0  0  0  0
   -1.9427   -0.7783    2.1439 H   0  0  0  0  0  0  0  0  0  0  0  0
   -3.6176   -1.3332    2.1666 H   0  0  0  0  0  0  0  0  0  0  0  0
   -4.8494   -1.7176   -0.1554 H   0  0  0  0  0  0  0  0  0  0  0  0
   -3.9472   -1.4341   -1.6424 H   0  0  0  0  0  0  0  0  0  0  0  0
   -4.4345   -0.0717   -0.6000 H   0  0  0  0  0  0  0  0  0  0  0  0
    4.0824    0.2191   -1.2530 O   0  0  0  0  0  0  0  0  0  0  0  0
    4.7022    0.6400   -0.6058 H   0  0  0  0  0  0  0  0  0  0  0  0
  1  2  1  0
  2  3  1  0
  4  3  1  1
  4  5  1  0
  4  6  2  0
  7  8  1  0
  8  9  1  0
  9 10  1  0
 10 11  1  0
 11 12  1  0
 11 13  1  0
 10 14  1  0
 14 15  1  0
 14 16  1  0
  1 17  1  0
  1 18  1  0
  1 19  1  0
  2 20  1  0
  2 21  1  0
  5 22  1  0
  5 23  1  0
  5 24  1  0
  8 25  1  0
  8 26  1  0
  9 27  1  0
  9 28  1  0
 10 29  1  0
 11 30  1  0
 12 31  1  0
 12 32  1  0
 12 33  1  0
 13 34  1  0
 13 35  1  0
 13 36  1  0
 14 37  1  0
 15 38  1  0
 15 39  1  0
 15 40  1  0
 16 41  1  0
 16 42  1  0
 16 43  1  0
 44 45  1  0
  4 44  1  0
  4  7  1  0
M  CHG  1  10   1
M  END
$$$$
