VX
     RDKit          3D

 45 44  0  0  0  0  0  0  0  0999 V2000
    3.2679   -2.4867    0.7737 C   0  0  0  0  0  0  0  0  0  0  0  0
    3.7656   -1.0713    0.9818 C   0  0  0  0  0  0  0  0  0  0  0  0
    2.9810   -0.1981    0.1849 O   0  0  0  0  0  0  0  0  0  0  0  0
    2.8483    1.3642    0.5813 P   0  0  0  0  0  0  0  0  0  0  0  0
    4.0412    2.1453    1.6472 C   0  0  0  0  0  0  0  0  0  0  0  0
    1.6945    2.1588    0.0344 O   0  0  0  0  0  0  0  0  0  0  0  0
    1.5514    0.7765    2.4634 S   0  0  0  0  0  0  0  0  0  0  0  0
   -0.1520    0.8420    1.8201 C   0  0  0  0  0  0  0  0  0  0  0  0
   -0.3338   -0.0587    0.5913 C   0  0  0  0  0  0  0  0  0  0  0  0
   -1.8037   -0.2722    0.1926 N   0  0  0  0  0  0  0  0  0  0  0  0
   -2.5854    1.0037   -0.2085 C   0  0  0  0  0  0  0  0  0  0  0  0
   -1.7549    1.9659   -1.0499 C   0  0  0  0  0  0  0  0  0  0  0  0
   -3.2177    1.6536    1.0178 C   0  0  0  0  0  0  0  0  0  0  0  0
   -2.0093   -1.3732   -0.8883 C   0  0  0  0  0  0  0  0  0  0  0  0
   -0.9517   -2.4763   -0.8378 C   0  0  0  0  0  0  0  0  0  0  0  0
   -3.3896   -2.0080   -0.6764 C   0  0  0  0  0  0  0  0  0  0  0  0
    3.8549   -3.1966    1.3629 H   0  0  0  0  0  0  0  0  0  0  0  0
    3.3296   -2.7671   -0.2832 H   0  0  0  0  0  0  0  0  0  0  0  0
    2.2150   -2.5702    1.0645 H   0  0  0  0  0  0  0  0  0  0  0  0
    3.6909   -0.7991    2.0388 H   0  0  0  0  0  0  0  0  0  0  0  0
    4.8112   -0.9887    0.6696 H   0  0  0  0  0  0  0  0  0  0  0  0
    3.5942    3.0049    2.1543 H   0  0  0  0  0  0  0  0  0  0  0  0
    4.8978    2.5005    1.0677 H   0  0  0  0  0  0  0  0  0  0  0  0
    4.4063    1.4571    2.4145 H   0  0  0  0  0  0  0  0  0  0  0  0
   -0.8223    0.5290    2.6265 H   0  0  0  0  0  0  0  0  0  0  0  0
   -0.3609    1.8866    1.5871 H   0  0  0  0  0  0  0  0  0  0  0  0
    0.1906    0.2915   -0.2998 H   0  0  0  0  0  0  0  0  0  0  0  0
    0.0497   -1.0456    0.8636 H   0  0  0  0  0  0  0  0  0  0  0  0
   -2.2568   -0.6445    1.0374 H   0  0  0  0  0  0  0  0  0  0  0  0
   -3.4169    0.6673   -0.8355 H   0  0  0  0  0  0  0  0  0  0  0  0
   -0.9717    2.4625   -0.4732 H   0  0  0  0  0  0  0  0  0  0  0  0
   -1.2900    1.4569   -1.9001 H   0  0  0  0  0  0  0  0  0  0  0  0
   -2.3977    2.7558   -1.4546 H   0  0  0  0  0  0  0  0  0  0  0  0
   -2.4911    2.1461    1.6658 H   0  0  0  0  0  0  0  0  0  0  0  0
   -3.7686    0.9197    1.6153 H   0  0  0  0  0  0  0  0  0  0  0  0
   -3.9326    2.4227    0.7043 H   0  0  0  0  0  0  0  0  0  0  0  0
   -1.9570   -0.8751   -1.8625 H   0  0  0  0  0  0  0  0  0  0  0  0
   -0.9081   -2.9528    0.1478 H   0  0  0  0  0  0  0  0  0  0  0  0
    0.0417   -2.0969   -1.0977 H   0  0  0  0  0  0  0  0  0  0  0  0
   -1.1846   -3.2587   -1.5694 H   0  0  0  0  0  0  0  0  0  0  0  0
   -3.4581   -2.4863    0.3069 H   0  0  0  0  0  0  0  0  0  0  0  0
   -4.2039   -1.2824   -0.7507 H   0  0  0  0  0  0  0  0  0  0  0  0
   -3.5758   -2.7768   -1.4347 H   0  0  0  0  0  0  0  0  0  0  0  0
    3.8924    1.8373   -0.9339 O   0  0  0  0  0  0  0  0  0  0  0  0
    4.7630    2.2318   -0.6759 H   0  0  0  0  0  0  0  0  0  0  0  0
  1  2  1  0
  2  3  1  0
  4  3  1  1
  4  5  1  0
  4  6  2  0
  7  8  1  0
  8  9  1  0
  9 10  1  0
 10 11  1  0
 11 12  1  0
 11 13  1  0
 10 14  1  0
 14 15  1  0
 14 16  1  0
  1 17  1  0
  1 18  1  0
  1 19  1  0
  2 20  1  0
  2 21  1  0
  5 22  1  0
  5 23  1  0
  5 24  1  0
  8 25  1  0
  8 26  1  0
  9 27  1  0
  9 28  1  0
 10 29  1  0
 11 30  1  0
 12 31  1  0
 12 32  1  0
 12 33  1  0
 13 34  1  0
 13 35  1  0
 13 36  1  0
 14 37  1  0
 15 38  1  0
 15 39  1  0
 15 40  1  0
 16 41  1  0
 16 42  1  0
 16 43  1  0
 44 45  1  0
  4 44  1  0
  4  7  1  0
M  CHG  1  10   1
M  END
$$$$
