VX
     RDKit          3D

 45 44  0  0  0  0  0  0  0  0999 V2000
    3.3721   -2.4889    0.7360 C   0  0  0  0  0  0  0  0  0  0  0  0
    3.7493   -1.0561    1.0509 C   0  0  0  0  0  0  0  0  0  0  0  0
    3.0075   -0.1961    0.2038 O   0  0  0  0  0  0  0  0  0  0  0  0
    2.8306    1.3649    0.5693 P   0  0  0  0  0  0  0  0  0  0  0  0
    4.0407    2.1231    1.6399 C   0  0  0  0  0  0  0  0  0  0  0  0
    1.6861    2.1781    0.0347 O   0  0  0  0  0  0  0  0  0  0  0  0
    1.5337    0.7772    2.4514 S   0  0  0  0  0  0  0  0  0  0  0  0
    0.6356    2.3170    2.8393 C   0  0  0  0  0  0  0  0  0  0  0  0
   -0.6299    2.0112    3.6434 C   0  0  0  0  0  0  0  0  0  0  0  0
   -1.5174    0.9647    2.9507 N   0  0  0  0  0  0  0  0  0  0  0  0
   -2.3737    1.4292    1.7574 C   0  0  0  0  0  0  0  0  0  0  0  0
   -1.6523    1.1217    0.4485 C   0  0  0  0  0  0  0  0  0  0  0  0
   -2.7882    2.8937    1.8459 C   0  0  0  0  0  0  0  0  0  0  0  0
   -2.2488    0.0815    3.9707 C   0  0  0  0  0  0  0  0  0  0  0  0
   -3.4275    0.8129    4.6003 C   0  0  0  0  0  0  0  0  0  0  0  0
   -2.6490   -1.2474    3.3316 C   0  0  0  0  0  0  0  0  0  0  0  0
    2.3009   -2.6494    0.8974 H   0  0  0  0  0  0  0  0  0  0  0  0
    3.9323   -3.1872    1.3641 H   0  0  0  0  0  0  0  0  0  0  0  0
    3.5738   -2.7193   -0.3154 H   0  0  0  0  0  0  0  0  0  0  0  0
    4.8167   -0.9013    0.8671 H   0  0  0  0  0  0  0  0  0  0  0  0
    3.5360   -0.8351    2.1006 H   0  0  0  0  0  0  0  0  0  0  0  0
    3.5994    2.9740    2.1669 H   0  0  0  0  0  0  0  0  0  0  0  0
    4.4100    1.4176    2.3891 H   0  0  0  0  0  0  0  0  0  0  0  0
    4.8916    2.4862    1.0569 H   0  0  0  0  0  0  0  0  0  0  0  0
    0.3788    2.8429    1.9180 H   0  0  0  0  0  0  0  0  0  0  0  0
    1.2979    2.9705    3.4154 H   0  0  0  0  0  0  0  0  0  0  0  0
   -1.2249    2.9054    3.8440 H   0  0  0  0  0  0  0  0  0  0  0  0
   -0.3353    1.5968    4.6149 H   0  0  0  0  0  0  0  0  0  0  0  0
   -0.8157    0.3223    2.5467 H   0  0  0  0  0  0  0  0  0  0  0  0
   -3.2851    0.8256    1.7674 H   0  0  0  0  0  0  0  0  0  0  0  0
   -2.3191    1.3044   -0.4015 H   0  0  0  0  0  0  0  0  0  0  0  0
   -1.3415    0.0728    0.4010 H   0  0  0  0  0  0  0  0  0  0  0  0
   -0.7724    1.7513    0.3077 H   0  0  0  0  0  0  0  0  0  0  0  0
   -1.9367    3.5725    1.7370 H   0  0  0  0  0  0  0  0  0  0  0  0
   -3.4903    3.1326    1.0389 H   0  0  0  0  0  0  0  0  0  0  0  0
   -3.2951    3.1149    2.7897 H   0  0  0  0  0  0  0  0  0  0  0  0
   -1.5129   -0.1500    4.7499 H   0  0  0  0  0  0  0  0  0  0  0  0
   -4.2230    1.0162    3.8771 H   0  0  0  0  0  0  0  0  0  0  0  0
   -3.1176    1.7630    5.0465 H   0  0  0  0  0  0  0  0  0  0  0  0
   -3.8646    0.2036    5.3989 H   0  0  0  0  0  0  0  0  0  0  0  0
   -3.4472   -1.1378    2.5921 H   0  0  0  0  0  0  0  0  0  0  0  0
   -3.0159   -1.9367    4.1003 H   0  0  0  0  0  0  0  0  0  0  0  0
   -1.7926   -1.7241    2.8432 H   0  0  0  0  0  0  0  0  0  0  0  0
    3.8747    1.8380   -0.9459 O   0  0  0  0  0  0  0  0  0  0  0  0
    4.7453    2.2325   -0.6879 H   0  0  0  0  0  0  0  0  0  0  0  0
  1  2  1  0
  2  3  1  0
  4  3  1  1
  4  5  1  0
  4  6  2  0
  7  8  1  0
  8  9  1  0
  9 10  1  0
 10 11  1  0
 11 12  1  0
 11 13  1  0
 10 14  1  0
 14 15  1  0
 14 16  1  0
  1 17  1  0
  1 18  1  0
  1 19  1  0
  2 20  1  0
  2 21  1  0
  5 22  1  0
  5 23  1  0
  5 24  1  0
  8 25  1  0
  8 26  1  0
  9 27  1  0
  9 28  1  0
 10 29  1  0
 11 30  1  0
 12 31  1  0
 12 32  1  0
 12 33  1  0
 13 34  1  0
 13 35  1  0
 13 36  1  0
 14 37  1  0
 15 38  1  0
 15 39  1  0
 15 40  1  0
 16 41  1  0
 16 42  1  0
 16 43  1  0
 44 45  1  0
  4 44  1  0
  4  7  1  0
M  CHG  1  10   1
M  END
$$$$
