VX
     RDKit          3D

 45 44  0  0  0  0  0  0  0  0999 V2000
    3.3470   -2.4905    0.7292 C   0  0  0  0  0  0  0  0  0  0  0  0
    3.7545   -1.0618    1.0238 C   0  0  0  0  0  0  0  0  0  0  0  0
    2.9964   -0.1955    0.1963 O   0  0  0  0  0  0  0  0  0  0  0  0
    2.8382    1.3643    0.5744 P   0  0  0  0  0  0  0  0  0  0  0  0
    4.0404    2.1318    1.6424 C   0  0  0  0  0  0  0  0  0  0  0  0
    1.6899    2.1696    0.0346 O   0  0  0  0  0  0  0  0  0  0  0  0
    1.5413    0.7766    2.4565 S   0  0  0  0  0  0  0  0  0  0  0  0
    0.0196    0.1627    1.6598 C   0  0  0  0  0  0  0  0  0  0  0  0
   -1.0239    1.2689    1.4205 C   0  0  0  0  0  0  0  0  0  0  0  0
   -1.2604    2.1452    2.6694 N   0  0  0  0  0  0  0  0  0  0  0  0
   -1.3711    3.6503    2.3302 C   0  0  0  0  0  0  0  0  0  0  0  0
   -0.0505    4.1968    1.7938 C   0  0  0  0  0  0  0  0  0  0  0  0
   -2.5366    3.9330    1.3865 C   0  0  0  0  0  0  0  0  0  0  0  0
   -2.4040    1.6491    3.5868 C   0  0  0  0  0  0  0  0  0  0  0  0
   -2.2387    0.1740    3.9468 C   0  0  0  0  0  0  0  0  0  0  0  0
   -2.4403    2.4608    4.8856 C   0  0  0  0  0  0  0  0  0  0  0  0
    3.9176   -3.1936    1.3423 H   0  0  0  0  0  0  0  0  0  0  0  0
    3.5106   -2.7288   -0.3270 H   0  0  0  0  0  0  0  0  0  0  0  0
    2.2795   -2.6346    0.9267 H   0  0  0  0  0  0  0  0  0  0  0  0
    4.8170   -0.9216    0.8039 H   0  0  0  0  0  0  0  0  0  0  0  0
    3.5787   -0.8325    2.0788 H   0  0  0  0  0  0  0  0  0  0  0  0
    4.4167    1.4301    2.3917 H   0  0  0  0  0  0  0  0  0  0  0  0
    3.5926    2.9792    2.1697 H   0  0  0  0  0  0  0  0  0  0  0  0
    4.8883    2.5024    1.0595 H   0  0  0  0  0  0  0  0  0  0  0  0
   -0.3759   -0.6350    2.2891 H   0  0  0  0  0  0  0  0  0  0  0  0
    0.2791   -0.3057    0.7045 H   0  0  0  0  0  0  0  0  0  0  0  0
   -0.6834    1.9135    0.6085 H   0  0  0  0  0  0  0  0  0  0  0  0
   -1.9919    0.8539    1.1200 H   0  0  0  0  0  0  0  0  0  0  0  0
   -0.3896    2.0567    3.2176 H   0  0  0  0  0  0  0  0  0  0  0  0
   -1.5402    4.1683    3.2765 H   0  0  0  0  0  0  0  0  0  0  0  0
    0.1334    3.8981    0.7601 H   0  0  0  0  0  0  0  0  0  0  0  0
    0.7963    3.8873    2.4135 H   0  0  0  0  0  0  0  0  0  0  0  0
   -0.0739    5.2928    1.8002 H   0  0  0  0  0  0  0  0  0  0  0  0
   -3.4928    3.6250    1.8185 H   0  0  0  0  0  0  0  0  0  0  0  0
   -2.4209    3.4319    0.4208 H   0  0  0  0  0  0  0  0  0  0  0  0
   -2.6068    5.0084    1.1881 H   0  0  0  0  0  0  0  0  0  0  0  0
   -3.3390    1.7777    3.0325 H   0  0  0  0  0  0  0  0  0  0  0  0
   -2.3919   -0.4714    3.0777 H   0  0  0  0  0  0  0  0  0  0  0  0
   -1.2554   -0.0287    4.3832 H   0  0  0  0  0  0  0  0  0  0  0  0
   -2.9929   -0.1301    4.6818 H   0  0  0  0  0  0  0  0  0  0  0  0
   -3.1102    1.9958    5.6179 H   0  0  0  0  0  0  0  0  0  0  0  0
   -2.8301    3.4698    4.7239 H   0  0  0  0  0  0  0  0  0  0  0  0
   -1.4470    2.5358    5.3411 H   0  0  0  0  0  0  0  0  0  0  0  0
    3.8823    1.8374   -0.9408 O   0  0  0  0  0  0  0  0  0  0  0  0
    4.7529    2.2319   -0.6828 H   0  0  0  0  0  0  0  0  0  0  0  0
  1  2  1  0
  2  3  1  0
  4  3  1  1
  4  5  1  0
  4  6  2  0
  7  8  1  0
  8  9  1  0
  9 10  1  0
 10 11  1  0
 11 12  1  0
 11 13  1  0
 10 14  1  0
 14 15  1  0
 14 16  1  0
  1 17  1  0
  1 18  1  0
  1 19  1  0
  2 20  1  0
  2 21  1  0
  5 22  1  0
  5 23  1  0
  5 24  1  0
  8 25  1  0
  8 26  1  0
  9 27  1  0
  9 28  1  0
 10 29  1  0
 11 30  1  0
 12 31  1  0
 12 32  1  0
 12 33  1  0
 13 34  1  0
 13 35  1  0
 13 36  1  0
 14 37  1  0
 15 38  1  0
 15 39  1  0
 15 40  1  0
 16 41  1  0
 16 42  1  0
 16 43  1  0
 44 45  1  0
  4 44  1  0
  4  7  1  0
M  CHG  1  10   1
M  END
$$$$
