VX
     RDKit          3D

 45 44  0  0  0  0  0  0  0  0999 V2000
    4.7923   -1.7508    0.4037 C   0  0  0  0  0  0  0  0  0  0  0  0
    3.6053   -1.1080    1.0905 C   0  0  0  0  0  0  0  0  0  0  0  0
    2.9921   -0.1965    0.1931 O   0  0  0  0  0  0  0  0  0  0  0  0
    2.8417    1.3637    0.5766 P   0  0  0  0  0  0  0  0  0  0  0  0
    4.0415    2.1357    1.6444 C   0  0  0  0  0  0  0  0  0  0  0  0
    1.6896    2.1672    0.0336 O   0  0  0  0  0  0  0  0  0  0  0  0
    1.5448    0.7760    2.4587 S   0  0  0  0  0  0  0  0  0  0  0  0
   -0.0874    0.4850    1.7172 C   0  0  0  0  0  0  0  0  0  0  0  0
   -0.8434    1.8059    1.5029 C   0  0  0  0  0  0  0  0  0  0  0  0
   -2.0268    1.6102    0.5223 N   0  0  0  0  0  0  0  0  0  0  0  0
   -3.2430    2.4976    0.8698 C   0  0  0  0  0  0  0  0  0  0  0  0
   -3.7414    2.1734    2.2877 C   0  0  0  0  0  0  0  0  0  0  0  0
   -4.4101    2.2445   -0.0850 C   0  0  0  0  0  0  0  0  0  0  0  0
   -1.4697    1.6819   -0.9251 C   0  0  0  0  0  0  0  0  0  0  0  0
   -1.3816    3.1093   -1.4529 C   0  0  0  0  0  0  0  0  0  0  0  0
   -2.2198    0.7272   -1.8498 C   0  0  0  0  0  0  0  0  0  0  0  0
    4.4794   -2.2552   -0.5164 H   0  0  0  0  0  0  0  0  0  0  0  0
    5.5290   -0.9934    0.1166 H   0  0  0  0  0  0  0  0  0  0  0  0
    5.2744   -2.4806    1.0599 H   0  0  0  0  0  0  0  0  0  0  0  0
    3.9214   -0.6108    2.0121 H   0  0  0  0  0  0  0  0  0  0  0  0
    2.8656   -1.8695    1.3555 H   0  0  0  0  0  0  0  0  0  0  0  0
    4.4236    1.4406    2.3964 H   0  0  0  0  0  0  0  0  0  0  0  0
    3.5908    2.9833    2.1689 H   0  0  0  0  0  0  0  0  0  0  0  0
    4.8873    2.5082    1.0598 H   0  0  0  0  0  0  0  0  0  0  0  0
   -0.6635   -0.1595    2.3896 H   0  0  0  0  0  0  0  0  0  0  0  0
    0.0562   -0.0691    0.7856 H   0  0  0  0  0  0  0  0  0  0  0  0
   -1.2321    2.1379    2.4653 H   0  0  0  0  0  0  0  0  0  0  0  0
   -0.2352    2.6228    1.1095 H   0  0  0  0  0  0  0  0  0  0  0  0
   -2.3542    0.6451    0.6553 H   0  0  0  0  0  0  0  0  0  0  0  0
   -2.9124    3.5402    0.8155 H   0  0  0  0  0  0  0  0  0  0  0  0
   -3.8408    1.0935    2.4418 H   0  0  0  0  0  0  0  0  0  0  0  0
   -3.0847    2.5765    3.0627 H   0  0  0  0  0  0  0  0  0  0  0  0
   -4.7219    2.6285    2.4697 H   0  0  0  0  0  0  0  0  0  0  0  0
   -4.2230    2.6393   -1.0844 H   0  0  0  0  0  0  0  0  0  0  0  0
   -5.3146    2.7551    0.2664 H   0  0  0  0  0  0  0  0  0  0  0  0
   -4.6441    1.1772   -0.1613 H   0  0  0  0  0  0  0  0  0  0  0  0
   -0.4518    1.2856   -0.8691 H   0  0  0  0  0  0  0  0  0  0  0  0
   -0.8381    3.1205   -2.4045 H   0  0  0  0  0  0  0  0  0  0  0  0
   -0.8410    3.7641   -0.7630 H   0  0  0  0  0  0  0  0  0  0  0  0
   -2.3608    3.5540   -1.6428 H   0  0  0  0  0  0  0  0  0  0  0  0
   -2.3302   -0.2627   -1.3946 H   0  0  0  0  0  0  0  0  0  0  0  0
   -1.6558    0.5965   -2.7807 H   0  0  0  0  0  0  0  0  0  0  0  0
   -3.2085    1.0877   -2.1360 H   0  0  0  0  0  0  0  0  0  0  0  0
    3.8858    1.8368   -0.9386 O   0  0  0  0  0  0  0  0  0  0  0  0
    4.7564    2.2313   -0.6806 H   0  0  0  0  0  0  0  0  0  0  0  0
  1  2  1  0
  2  3  1  0
  4  3  1  1
  4  5  1  0
  4  6  2  0
  7  8  1  0
  8  9  1  0
  9 10  1  0
 10 11  1  0
 11 12  1  0
 11 13  1  0
 10 14  1  0
 14 15  1  0
 14 16  1  0
  1 17  1  0
  1 18  1  0
  1 19  1  0
  2 20  1  0
  2 21  1  0
  5 22  1  0
  5 23  1  0
  5 24  1  0
  8 25  1  0
  8 26  1  0
  9 27  1  0
  9 28  1  0
 10 29  1  0
 11 30  1  0
 12 31  1  0
 12 32  1  0
 12 33  1  0
 13 34  1  0
 13 35  1  0
 13 36  1  0
 14 37  1  0
 15 38  1  0
 15 39  1  0
 15 40  1  0
 16 41  1  0
 16 42  1  0
 16 43  1  0
 44 45  1  0
  4 44  1  0
  4  7  1  0
M  CHG  1  10   1
M  END
$$$$
