VX
     RDKit          3D

 45 44  0  0  0  0  0  0  0  0999 V2000
    3.6342   -1.4892    2.1324 C   0  0  0  0  0  0  0  0  0  0  0  0
    3.9612   -1.0625    0.7167 C   0  0  0  0  0  0  0  0  0  0  0  0
    2.9748   -0.1966    0.1811 O   0  0  0  0  0  0  0  0  0  0  0  0
    2.8524    1.3632    0.5839 P   0  0  0  0  0  0  0  0  0  0  0  0
    4.0416    2.1497    1.6489 C   0  0  0  0  0  0  0  0  0  0  0  0
    1.6961    2.1537    0.0339 O   0  0  0  0  0  0  0  0  0  0  0  0
    1.5555    0.7755    2.4659 S   0  0  0  0  0  0  0  0  0  0  0  0
   -0.1536    0.8499    1.8424 C   0  0  0  0  0  0  0  0  0  0  0  0
   -0.3586   -0.0726    0.6317 C   0  0  0  0  0  0  0  0  0  0  0  0
   -1.8226   -0.2155    0.1686 N   0  0  0  0  0  0  0  0  0  0  0  0
   -2.6157   -1.3518    0.8357 C   0  0  0  0  0  0  0  0  0  0  0  0
   -2.8351   -1.1192    2.3220 C   0  0  0  0  0  0  0  0  0  0  0  0
   -1.9628   -2.7070    0.5568 C   0  0  0  0  0  0  0  0  0  0  0  0
   -2.5661    1.1315    0.0077 C   0  0  0  0  0  0  0  0  0  0  0  0
   -1.8253    2.0073   -1.0075 C   0  0  0  0  0  0  0  0  0  0  0  0
   -3.9985    0.9228   -0.4891 C   0  0  0  0  0  0  0  0  0  0  0  0
    4.3111   -2.2835    2.4609 H   0  0  0  0  0  0  0  0  0  0  0  0
    3.7397   -0.6516    2.8270 H   0  0  0  0  0  0  0  0  0  0  0  0
    2.6031   -1.8493    2.2042 H   0  0  0  0  0  0  0  0  0  0  0  0
    4.9523   -0.6058    0.6567 H   0  0  0  0  0  0  0  0  0  0  0  0
    3.9838   -1.9495    0.0750 H   0  0  0  0  0  0  0  0  0  0  0  0
    3.5862    3.0076    2.1525 H   0  0  0  0  0  0  0  0  0  0  0  0
    4.4057    1.4672    2.4215 H   0  0  0  0  0  0  0  0  0  0  0  0
    4.8968    2.5124    1.0718 H   0  0  0  0  0  0  0  0  0  0  0  0
   -0.3643    1.8918    1.5877 H   0  0  0  0  0  0  0  0  0  0  0  0
   -0.8071    0.5841    2.6735 H   0  0  0  0  0  0  0  0  0  0  0  0
    0.1818    0.2868   -0.2480 H   0  0  0  0  0  0  0  0  0  0  0  0
    0.0188   -1.0772    0.8345 H   0  0  0  0  0  0  0  0  0  0  0  0
   -1.7256   -0.5442   -0.8023 H   0  0  0  0  0  0  0  0  0  0  0  0
   -3.5842   -1.3823    0.3298 H   0  0  0  0  0  0  0  0  0  0  0  0
   -3.2233   -0.1177    2.5282 H   0  0  0  0  0  0  0  0  0  0  0  0
   -1.9171   -1.2700    2.8975 H   0  0  0  0  0  0  0  0  0  0  0  0
   -3.5680   -1.8376    2.7066 H   0  0  0  0  0  0  0  0  0  0  0  0
   -1.0557   -2.8659    1.1472 H   0  0  0  0  0  0  0  0  0  0  0  0
   -2.6553   -3.5147    0.8201 H   0  0  0  0  0  0  0  0  0  0  0  0
   -1.7136   -2.8194   -0.5035 H   0  0  0  0  0  0  0  0  0  0  0  0
   -2.5896    1.6113    0.9909 H   0  0  0  0  0  0  0  0  0  0  0  0
   -0.8341    2.3004   -0.6559 H   0  0  0  0  0  0  0  0  0  0  0  0
   -1.7083    1.4942   -1.9683 H   0  0  0  0  0  0  0  0  0  0  0  0
   -2.3775    2.9361   -1.1897 H   0  0  0  0  0  0  0  0  0  0  0  0
   -4.4623    1.8824   -0.7444 H   0  0  0  0  0  0  0  0  0  0  0  0
   -4.0284    0.2897   -1.3824 H   0  0  0  0  0  0  0  0  0  0  0  0
   -4.6316    0.4751    0.2832 H   0  0  0  0  0  0  0  0  0  0  0  0
    3.8965    1.8364   -0.9313 O   0  0  0  0  0  0  0  0  0  0  0  0
    4.7671    2.2309   -0.6733 H   0  0  0  0  0  0  0  0  0  0  0  0
  1  2  1  0
  2  3  1  0
  4  3  1  1
  4  5  1  0
  4  6  2  0
  7  8  1  0
  8  9  1  0
  9 10  1  0
 10 11  1  0
 11 12  1  0
 11 13  1  0
 10 14  1  0
 14 15  1  0
 14 16  1  0
  1 17  1  0
  1 18  1  0
  1 19  1  0
  2 20  1  0
  2 21  1  0
  5 22  1  0
  5 23  1  0
  5 24  1  0
  8 25  1  0
  8 26  1  0
  9 27  1  0
  9 28  1  0
 10 29  1  0
 11 30  1  0
 12 31  1  0
 12 32  1  0
 12 33  1  0
 13 34  1  0
 13 35  1  0
 13 36  1  0
 14 37  1  0
 15 38  1  0
 15 39  1  0
 15 40  1  0
 16 41  1  0
 16 42  1  0
 16 43  1  0
 44 45  1  0
  4 44  1  0
  4  7  1  0
M  CHG  1  10   1
M  END
$$$$
