VX
     RDKit          3D

 45 44  0  0  0  0  0  0  0  0999 V2000
    4.7004   -0.0715    2.6305 C   0  0  0  0  0  0  0  0  0  0  0  0
    3.3568   -0.5969    2.1694 C   0  0  0  0  0  0  0  0  0  0  0  0
    2.9820    0.0785    0.9797 O   0  0  0  0  0  0  0  0  0  0  0  0
    2.6954   -0.7421   -0.3797 P   0  0  0  0  0  0  0  0  0  0  0  0
    3.5470   -2.2770   -0.6869 C   0  0  0  0  0  0  0  0  0  0  0  0
    1.7098   -0.2127   -1.3882 O   0  0  0  0  0  0  0  0  0  0  0  0
    0.9586   -1.9215    0.6984 S   0  0  0  0  0  0  0  0  0  0  0  0
   -0.4155   -0.7381    0.5985 C   0  0  0  0  0  0  0  0  0  0  0  0
   -1.1060   -0.8078   -0.7727 C   0  0  0  0  0  0  0  0  0  0  0  0
   -1.9556    0.4536   -1.0386 N   0  0  0  0  0  0  0  0  0  0  0  0
   -3.2523    0.1034   -1.7781 C   0  0  0  0  0  0  0  0  0  0  0  0
   -3.0369   -0.5599   -3.1358 C   0  0  0  0  0  0  0  0  0  0  0  0
   -4.2027    1.2893   -1.8601 C   0  0  0  0  0  0  0  0  0  0  0  0
   -1.0633    1.6303   -1.4843 C   0  0  0  0  0  0  0  0  0  0  0  0
   -1.5944    2.9512   -0.9311 C   0  0  0  0  0  0  0  0  0  0  0  0
   -0.8106    1.6830   -2.9808 C   0  0  0  0  0  0  0  0  0  0  0  0
    5.4671   -0.2507    1.8697 H   0  0  0  0  0  0  0  0  0  0  0  0
    5.0090   -0.5537    3.5621 H   0  0  0  0  0  0  0  0  0  0  0  0
    4.6575    1.0110    2.7901 H   0  0  0  0  0  0  0  0  0  0  0  0
    2.5933   -0.3952    2.9268 H   0  0  0  0  0  0  0  0  0  0  0  0
    3.4024   -1.6792    2.0177 H   0  0  0  0  0  0  0  0  0  0  0  0
    3.7318   -2.8315    0.2367 H   0  0  0  0  0  0  0  0  0  0  0  0
    2.9518   -2.9138   -1.3477 H   0  0  0  0  0  0  0  0  0  0  0  0
    4.5087   -2.0881   -1.1723 H   0  0  0  0  0  0  0  0  0  0  0  0
   -1.1390   -0.9797    1.3842 H   0  0  0  0  0  0  0  0  0  0  0  0
   -0.0224    0.2578    0.8198 H   0  0  0  0  0  0  0  0  0  0  0  0
   -0.4267   -0.9144   -1.6213 H   0  0  0  0  0  0  0  0  0  0  0  0
   -1.7873   -1.6667   -0.7724 H   0  0  0  0  0  0  0  0  0  0  0  0
   -2.2927    0.7311   -0.1085 H   0  0  0  0  0  0  0  0  0  0  0  0
   -3.7343   -0.6356   -1.1242 H   0  0  0  0  0  0  0  0  0  0  0  0
   -2.2874   -1.3550   -3.1032 H   0  0  0  0  0  0  0  0  0  0  0  0
   -3.9748   -1.0203   -3.4687 H   0  0  0  0  0  0  0  0  0  0  0  0
   -2.7542    0.1501   -3.9152 H   0  0  0  0  0  0  0  0  0  0  0  0
   -5.1961    0.9513   -2.1768 H   0  0  0  0  0  0  0  0  0  0  0  0
   -4.3208    1.7760   -0.8867 H   0  0  0  0  0  0  0  0  0  0  0  0
   -3.8739    2.0303   -2.5935 H   0  0  0  0  0  0  0  0  0  0  0  0
   -0.1002    1.4706   -0.9913 H   0  0  0  0  0  0  0  0  0  0  0  0
   -0.8354    3.7337   -1.0461 H   0  0  0  0  0  0  0  0  0  0  0  0
   -1.8233    2.8745    0.1370 H   0  0  0  0  0  0  0  0  0  0  0  0
   -2.4867    3.3020   -1.4526 H   0  0  0  0  0  0  0  0  0  0  0  0
   -1.6925    2.0130   -3.5358 H   0  0  0  0  0  0  0  0  0  0  0  0
   -0.4757    0.7183   -3.3725 H   0  0  0  0  0  0  0  0  0  0  0  0
   -0.0182    2.4089   -3.1973 H   0  0  0  0  0  0  0  0  0  0  0  0
    4.0937    0.2074   -1.2476 O   0  0  0  0  0  0  0  0  0  0  0  0
    4.7135    0.6283   -0.6005 H   0  0  0  0  0  0  0  0  0  0  0  0
  1  2  1  0
  2  3  1  0
  4  3  1  1
  4  5  1  0
  4  6  2  0
  7  8  1  0
  8  9  1  0
  9 10  1  0
 10 11  1  0
 11 12  1  0
 11 13  1  0
 10 14  1  0
 14 15  1  0
 14 16  1  0
  1 17  1  0
  1 18  1  0
  1 19  1  0
  2 20  1  0
  2 21  1  0
  5 22  1  0
  5 23  1  0
  5 24  1  0
  8 25  1  0
  8 26  1  0
  9 27  1  0
  9 28  1  0
 10 29  1  0
 11 30  1  0
 12 31  1  0
 12 32  1  0
 12 33  1  0
 13 34  1  0
 13 35  1  0
 13 36  1  0
 14 37  1  0
 15 38  1  0
 15 39  1  0
 15 40  1  0
 16 41  1  0
 16 42  1  0
 16 43  1  0
 44 45  1  0
  4 44  1  0
  4  7  1  0
M  CHG  1  10   1
M  END
$$$$
