VX
     RDKit          3D

 45 44  0  0  0  0  0  0  0  0999 V2000
    3.3322   -2.4946    0.7150 C   0  0  0  0  0  0  0  0  0  0  0  0
    3.7584   -1.0690    0.9980 C   0  0  0  0  0  0  0  0  0  0  0  0
    2.9854   -0.1975    0.1882 O   0  0  0  0  0  0  0  0  0  0  0  0
    2.8461    1.3638    0.5797 P   0  0  0  0  0  0  0  0  0  0  0  0
    4.0414    2.1414    1.6462 C   0  0  0  0  0  0  0  0  0  0  0  0
    1.6920    2.1624    0.0338 O   0  0  0  0  0  0  0  0  0  0  0  0
    1.5492    0.7761    2.4618 S   0  0  0  0  0  0  0  0  0  0  0  0
   -0.1479    1.1282    1.9164 C   0  0  0  0  0  0  0  0  0  0  0  0
   -0.5495    0.2663    0.7090 C   0  0  0  0  0  0  0  0  0  0  0  0
   -1.8821    0.7676    0.0973 N   0  0  0  0  0  0  0  0  0  0  0  0
   -1.5621    1.9483   -0.8578 C   0  0  0  0  0  0  0  0  0  0  0  0
   -1.1823    1.4844   -2.2595 C   0  0  0  0  0  0  0  0  0  0  0  0
   -2.6731    2.9942   -0.8326 C   0  0  0  0  0  0  0  0  0  0  0  0
   -2.7601   -0.3825   -0.4431 C   0  0  0  0  0  0  0  0  0  0  0  0
   -3.1060   -1.3563    0.6954 C   0  0  0  0  0  0  0  0  0  0  0  0
   -4.0831    0.1378   -1.0052 C   0  0  0  0  0  0  0  0  0  0  0  0
    2.2688   -2.6299    0.9394 H   0  0  0  0  0  0  0  0  0  0  0  0
    3.4668   -2.7348   -0.3448 H   0  0  0  0  0  0  0  0  0  0  0  0
    3.9124   -3.2020    1.3139 H   0  0  0  0  0  0  0  0  0  0  0  0
    3.6117   -0.8379    2.0571 H   0  0  0  0  0  0  0  0  0  0  0  0
    4.8158   -0.9371    0.7503 H   0  0  0  0  0  0  0  0  0  0  0  0
    3.5922    2.9970    2.1586 H   0  0  0  0  0  0  0  0  0  0  0  0
    4.4102    1.4492    2.4080 H   0  0  0  0  0  0  0  0  0  0  0  0
    4.8950    2.5020    1.0654 H   0  0  0  0  0  0  0  0  0  0  0  0
   -0.8254    0.9267    2.7531 H   0  0  0  0  0  0  0  0  0  0  0  0
   -0.2173    2.1974    1.6994 H   0  0  0  0  0  0  0  0  0  0  0  0
    0.1849    0.2497   -0.0990 H   0  0  0  0  0  0  0  0  0  0  0  0
   -0.6776   -0.7631    1.0429 H   0  0  0  0  0  0  0  0  0  0  0  0
   -2.4204    1.1712    0.8746 H   0  0  0  0  0  0  0  0  0  0  0  0
   -0.6896    2.4471   -0.4269 H   0  0  0  0  0  0  0  0  0  0  0  0
   -2.0240    1.0585   -2.8094 H   0  0  0  0  0  0  0  0  0  0  0  0
   -0.3815    0.7392   -2.2368 H   0  0  0  0  0  0  0  0  0  0  0  0
   -0.8173    2.3351   -2.8459 H   0  0  0  0  0  0  0  0  0  0  0  0
   -2.9729    3.2319    0.1934 H   0  0  0  0  0  0  0  0  0  0  0  0
   -2.3146    3.9233   -1.2905 H   0  0  0  0  0  0  0  0  0  0  0  0
   -3.5610    2.6978   -1.3921 H   0  0  0  0  0  0  0  0  0  0  0  0
   -2.1819   -0.8968   -1.2182 H   0  0  0  0  0  0  0  0  0  0  0  0
   -3.4681   -0.8250    1.5822 H   0  0  0  0  0  0  0  0  0  0  0  0
   -3.8890   -2.0573    0.3833 H   0  0  0  0  0  0  0  0  0  0  0  0
   -2.2564   -1.9786    0.9867 H   0  0  0  0  0  0  0  0  0  0  0  0
   -3.9527    0.6765   -1.9446 H   0  0  0  0  0  0  0  0  0  0  0  0
   -4.7585   -0.6943   -1.2369 H   0  0  0  0  0  0  0  0  0  0  0  0
   -4.5972    0.7880   -0.2894 H   0  0  0  0  0  0  0  0  0  0  0  0
    3.8902    1.8369   -0.9355 O   0  0  0  0  0  0  0  0  0  0  0  0
    4.7608    2.2314   -0.6775 H   0  0  0  0  0  0  0  0  0  0  0  0
  1  2  1  0
  2  3  1  0
  4  3  1  1
  4  5  1  0
  4  6  2  0
  7  8  1  0
  8  9  1  0
  9 10  1  0
 10 11  1  0
 11 12  1  0
 11 13  1  0
 10 14  1  0
 14 15  1  0
 14 16  1  0
  1 17  1  0
  1 18  1  0
  1 19  1  0
  2 20  1  0
  2 21  1  0
  5 22  1  0
  5 23  1  0
  5 24  1  0
  8 25  1  0
  8 26  1  0
  9 27  1  0
  9 28  1  0
 10 29  1  0
 11 30  1  0
 12 31  1  0
 12 32  1  0
 12 33  1  0
 13 34  1  0
 13 35  1  0
 13 36  1  0
 14 37  1  0
 15 38  1  0
 15 39  1  0
 15 40  1  0
 16 41  1  0
 16 42  1  0
 16 43  1  0
 44 45  1  0
  4 44  1  0
  4  7  1  0
M  CHG  1  10   1
M  END
$$$$
