VX
     RDKit          3D

 45 44  0  0  0  0  0  0  0  0999 V2000
    4.2421    0.3646   -1.6093 C   0  0  0  0  0  0  0  0  0  0  0  0
    3.4999    1.3170   -0.6945 C   0  0  0  0  0  0  0  0  0  0  0  0
    3.7694    0.9819    0.6558 O   0  0  0  0  0  0  0  0  0  0  0  0
    2.6822    0.1306    1.4867 P   0  0  0  0  0  0  0  0  0  0  0  0
    2.9717    0.0029    3.2423 C   0  0  0  0  0  0  0  0  0  0  0  0
    1.4797   -0.5360    0.8712 O   0  0  0  0  0  0  0  0  0  0  0  0
    1.4158    2.0908    1.8381 S   0  0  0  0  0  0  0  0  0  0  0  0
   -0.2939    1.4969    1.7001 C   0  0  0  0  0  0  0  0  0  0  0  0
   -0.6894    1.3109    0.2268 C   0  0  0  0  0  0  0  0  0  0  0  0
   -1.9639    0.4706    0.0846 N   0  0  0  0  0  0  0  0  0  0  0  0
   -1.7080   -1.0364    0.3000 C   0  0  0  0  0  0  0  0  0  0  0  0
   -2.9920   -1.7004    0.7988 C   0  0  0  0  0  0  0  0  0  0  0  0
   -1.1533   -1.7288   -0.9372 C   0  0  0  0  0  0  0  0  0  0  0  0
   -2.8374    0.8300   -1.1294 C   0  0  0  0  0  0  0  0  0  0  0  0
   -3.7340    2.0092   -0.7486 C   0  0  0  0  0  0  0  0  0  0  0  0
   -2.0250    1.1410   -2.3856 C   0  0  0  0  0  0  0  0  0  0  0  0
    3.9170   -0.6675   -1.4440 H   0  0  0  0  0  0  0  0  0  0  0  0
    4.0736    0.6220   -2.6587 H   0  0  0  0  0  0  0  0  0  0  0  0
    5.3177    0.3953   -1.4063 H   0  0  0  0  0  0  0  0  0  0  0  0
    3.8447    2.3419   -0.8616 H   0  0  0  0  0  0  0  0  0  0  0  0
    2.4238    1.2892   -0.8949 H   0  0  0  0  0  0  0  0  0  0  0  0
    3.6023   -0.8631    3.4623 H   0  0  0  0  0  0  0  0  0  0  0  0
    2.0268   -0.1147    3.7801 H   0  0  0  0  0  0  0  0  0  0  0  0
    3.4743    0.8981    3.6193 H   0  0  0  0  0  0  0  0  0  0  0  0
   -0.3823    0.5767    2.2824 H   0  0  0  0  0  0  0  0  0  0  0  0
   -0.9556    2.2354    2.1653 H   0  0  0  0  0  0  0  0  0  0  0  0
   -0.9045    2.3006   -0.1887 H   0  0  0  0  0  0  0  0  0  0  0  0
    0.0776    0.8366   -0.3897 H   0  0  0  0  0  0  0  0  0  0  0  0
   -2.5371    0.7359    0.8952 H   0  0  0  0  0  0  0  0  0  0  0  0
   -0.9737   -1.1118    1.1061 H   0  0  0  0  0  0  0  0  0  0  0  0
   -2.7940   -2.7406    1.0800 H   0  0  0  0  0  0  0  0  0  0  0  0
   -3.3820   -1.1888    1.6852 H   0  0  0  0  0  0  0  0  0  0  0  0
   -3.7783   -1.7129    0.0385 H   0  0  0  0  0  0  0  0  0  0  0  0
   -0.8935   -2.7664   -0.6986 H   0  0  0  0  0  0  0  0  0  0  0  0
   -1.8820   -1.7635   -1.7528 H   0  0  0  0  0  0  0  0  0  0  0  0
   -0.2420   -1.2460   -1.3005 H   0  0  0  0  0  0  0  0  0  0  0  0
   -3.4827   -0.0313   -1.3243 H   0  0  0  0  0  0  0  0  0  0  0  0
   -3.1519    2.9043   -0.5069 H   0  0  0  0  0  0  0  0  0  0  0  0
   -4.3564    1.7647    0.1191 H   0  0  0  0  0  0  0  0  0  0  0  0
   -4.4065    2.2611   -1.5757 H   0  0  0  0  0  0  0  0  0  0  0  0
   -2.6982    1.2373   -3.2452 H   0  0  0  0  0  0  0  0  0  0  0  0
   -1.4805    2.0871   -2.3065 H   0  0  0  0  0  0  0  0  0  0  0  0
   -1.3054    0.3566   -2.6271 H   0  0  0  0  0  0  0  0  0  0  0  0
    3.7018   -1.4475    1.2038 O   0  0  0  0  0  0  0  0  0  0  0  0
    3.9749   -1.8704    2.0563 H   0  0  0  0  0  0  0  0  0  0  0  0
  1  2  1  0
  2  3  1  0
  4  3  1  1
  4  5  1  0
  4  6  2  0
  7  8  1  0
  8  9  1  0
  9 10  1  0
 10 11  1  0
 11 12  1  0
 11 13  1  0
 10 14  1  0
 14 15  1  0
 14 16  1  0
  1 17  1  0
  1 18  1  0
  1 19  1  0
  2 20  1  0
  2 21  1  0
  5 22  1  0
  5 23  1  0
  5 24  1  0
  8 25  1  0
  8 26  1  0
  9 27  1  0
  9 28  1  0
 10 29  1  0
 11 30  1  0
 12 31  1  0
 12 32  1  0
 12 33  1  0
 13 34  1  0
 13 35  1  0
 13 36  1  0
 14 37  1  0
 15 38  1  0
 15 39  1  0
 15 40  1  0
 16 41  1  0
 16 42  1  0
 16 43  1  0
 44 45  1  0
  4 44  1  0
  4  7  1  0
M  CHG  1  10   1
M  END
$$$$
