VX
     RDKit          3D

 45 44  0  0  0  0  0  0  0  0999 V2000
    2.4481   -1.3396   -1.8275 C   0  0  0  0  0  0  0  0  0  0  0  0
    3.5008   -0.5342   -1.0905 C   0  0  0  0  0  0  0  0  0  0  0  0
    2.9912   -0.1952    0.1928 O   0  0  0  0  0  0  0  0  0  0  0  0
    2.8429    1.3641    0.5776 P   0  0  0  0  0  0  0  0  0  0  0  0
    4.0391    2.1353    1.6426 C   0  0  0  0  0  0  0  0  0  0  0  0
    1.6918    2.1658    0.0347 O   0  0  0  0  0  0  0  0  0  0  0  0
    1.5460    0.7765    2.4597 S   0  0  0  0  0  0  0  0  0  0  0  0
    0.2987   -0.3640    1.7747 C   0  0  0  0  0  0  0  0  0  0  0  0
   -0.6283    0.2291    0.6952 C   0  0  0  0  0  0  0  0  0  0  0  0
   -1.1972    1.6089    1.0229 N   0  0  0  0  0  0  0  0  0  0  0  0
   -1.9075    1.7063    2.3807 C   0  0  0  0  0  0  0  0  0  0  0  0
   -1.8813    3.1536    2.8830 C   0  0  0  0  0  0  0  0  0  0  0  0
   -3.3144    1.1266    2.3399 C   0  0  0  0  0  0  0  0  0  0  0  0
   -1.9451    2.2853   -0.1481 C   0  0  0  0  0  0  0  0  0  0  0  0
   -2.7702    1.3028   -0.9838 C   0  0  0  0  0  0  0  0  0  0  0  0
   -0.9583    3.0483   -1.0295 C   0  0  0  0  0  0  0  0  0  0  0  0
    1.5270   -0.7565   -1.9578 H   0  0  0  0  0  0  0  0  0  0  0  0
    2.1723   -2.2307   -1.2452 H   0  0  0  0  0  0  0  0  0  0  0  0
    2.7942   -1.6504   -2.8134 H   0  0  0  0  0  0  0  0  0  0  0  0
    3.7706    0.3620   -1.6634 H   0  0  0  0  0  0  0  0  0  0  0  0
    4.4054   -1.1326   -0.9515 H   0  0  0  0  0  0  0  0  0  0  0  0
    4.8550    2.5769    1.0666 H   0  0  0  0  0  0  0  0  0  0  0  0
    4.4684    1.4198    2.3507 H   0  0  0  0  0  0  0  0  0  0  0  0
    3.5646    2.9407    2.2164 H   0  0  0  0  0  0  0  0  0  0  0  0
    0.8232   -1.2295    1.3552 H   0  0  0  0  0  0  0  0  0  0  0  0
   -0.2970   -0.7438    2.6104 H   0  0  0  0  0  0  0  0  0  0  0  0
   -0.0821    0.3294   -0.2468 H   0  0  0  0  0  0  0  0  0  0  0  0
   -1.4762   -0.4452    0.5347 H   0  0  0  0  0  0  0  0  0  0  0  0
   -0.3393    2.1736    1.1379 H   0  0  0  0  0  0  0  0  0  0  0  0
   -1.3202    1.1227    3.0914 H   0  0  0  0  0  0  0  0  0  0  0  0
   -0.8663    3.5613    2.8620 H   0  0  0  0  0  0  0  0  0  0  0  0
   -2.5243    3.8137    2.2944 H   0  0  0  0  0  0  0  0  0  0  0  0
   -2.2332    3.1972    3.9211 H   0  0  0  0  0  0  0  0  0  0  0  0
   -3.3189    0.1064    1.9371 H   0  0  0  0  0  0  0  0  0  0  0  0
   -3.7316    1.0806    3.3537 H   0  0  0  0  0  0  0  0  0  0  0  0
   -3.9970    1.7372    1.7360 H   0  0  0  0  0  0  0  0  0  0  0  0
   -2.6228    3.0218    0.2920 H   0  0  0  0  0  0  0  0  0  0  0  0
   -3.3579    1.8612   -1.7217 H   0  0  0  0  0  0  0  0  0  0  0  0
   -3.4779    0.7205   -0.3842 H   0  0  0  0  0  0  0  0  0  0  0  0
   -2.1379    0.6087   -1.5454 H   0  0  0  0  0  0  0  0  0  0  0  0
   -1.5025    3.6962   -1.7314 H   0  0  0  0  0  0  0  0  0  0  0  0
   -0.3387    2.3686   -1.6253 H   0  0  0  0  0  0  0  0  0  0  0  0
   -0.3078    3.7001   -0.4276 H   0  0  0  0  0  0  0  0  0  0  0  0
    3.8870    1.8372   -0.9377 O   0  0  0  0  0  0  0  0  0  0  0  0
    4.7576    2.2316   -0.6796 H   0  0  0  0  0  0  0  0  0  0  0  0
  1  2  1  0
  2  3  1  0
  4  3  1  1
  4  5  1  0
  4  6  2  0
  7  8  1  0
  8  9  1  0
  9 10  1  0
 10 11  1  0
 11 12  1  0
 11 13  1  0
 10 14  1  0
 14 15  1  0
 14 16  1  0
  1 17  1  0
  1 18  1  0
  1 19  1  0
  2 20  1  0
  2 21  1  0
  5 22  1  0
  5 23  1  0
  5 24  1  0
  8 25  1  0
  8 26  1  0
  9 27  1  0
  9 28  1  0
 10 29  1  0
 11 30  1  0
 12 31  1  0
 12 32  1  0
 12 33  1  0
 13 34  1  0
 13 35  1  0
 13 36  1  0
 14 37  1  0
 15 38  1  0
 15 39  1  0
 15 40  1  0
 16 41  1  0
 16 42  1  0
 16 43  1  0
 44 45  1  0
  4 44  1  0
  4  7  1  0
M  CHG  1  10   1
M  END
$$$$
