VX
     RDKit          3D

 45 44  0  0  0  0  0  0  0  0999 V2000
    3.6827   -2.0287   -1.1644 C   0  0  0  0  0  0  0  0  0  0  0  0
    3.4966   -0.5272   -1.0880 C   0  0  0  0  0  0  0  0  0  0  0  0
    3.0070   -0.1957    0.2036 O   0  0  0  0  0  0  0  0  0  0  0  0
    2.8320    1.3654    0.5704 P   0  0  0  0  0  0  0  0  0  0  0  0
    4.0385    2.1228    1.6383 C   0  0  0  0  0  0  0  0  0  0  0  0
    1.6874    2.1777    0.0354 O   0  0  0  0  0  0  0  0  0  0  0  0
    1.5351    0.7777    2.4525 S   0  0  0  0  0  0  0  0  0  0  0  0
    0.3179    2.1283    2.5764 C   0  0  0  0  0  0  0  0  0  0  0  0
   -0.8426    1.9654    1.5767 C   0  0  0  0  0  0  0  0  0  0  0  0
   -1.3958    0.5172    1.5846 N   0  0  0  0  0  0  0  0  0  0  0  0
   -2.3234    0.3335    2.8006 C   0  0  0  0  0  0  0  0  0  0  0  0
   -2.1857   -1.0609    3.4046 C   0  0  0  0  0  0  0  0  0  0  0  0
   -3.7634    0.7400    2.5030 C   0  0  0  0  0  0  0  0  0  0  0  0
   -1.9034    0.0506    0.2019 C   0  0  0  0  0  0  0  0  0  0  0  0
   -0.7878    0.1544   -0.8488 C   0  0  0  0  0  0  0  0  0  0  0  0
   -2.3485   -1.4124    0.2348 C   0  0  0  0  0  0  0  0  0  0  0  0
    4.4061   -2.3642   -0.4128 H   0  0  0  0  0  0  0  0  0  0  0  0
    4.0379   -2.3283   -2.1546 H   0  0  0  0  0  0  0  0  0  0  0  0
    2.7413   -2.5492   -0.9532 H   0  0  0  0  0  0  0  0  0  0  0  0
    2.7732   -0.1992   -1.8422 H   0  0  0  0  0  0  0  0  0  0  0  0
    4.4505   -0.0214   -1.2636 H   0  0  0  0  0  0  0  0  0  0  0  0
    3.5816    2.9329    2.2137 H   0  0  0  0  0  0  0  0  0  0  0  0
    4.8650    2.5444    1.0599 H   0  0  0  0  0  0  0  0  0  0  0  0
    4.4477    1.3923    2.3407 H   0  0  0  0  0  0  0  0  0  0  0  0
   -0.0610    2.1330    3.6029 H   0  0  0  0  0  0  0  0  0  0  0  0
    0.8179    3.0896    2.4185 H   0  0  0  0  0  0  0  0  0  0  0  0
   -0.5121    2.2150    0.5727 H   0  0  0  0  0  0  0  0  0  0  0  0
   -1.6715    2.6413    1.8150 H   0  0  0  0  0  0  0  0  0  0  0  0
   -0.5584   -0.0604    1.7695 H   0  0  0  0  0  0  0  0  0  0  0  0
   -1.9467    1.0208    3.5663 H   0  0  0  0  0  0  0  0  0  0  0  0
   -2.6718   -1.8398    2.8153 H   0  0  0  0  0  0  0  0  0  0  0  0
   -2.6575   -1.0814    4.3941 H   0  0  0  0  0  0  0  0  0  0  0  0
   -1.1338   -1.3348    3.5398 H   0  0  0  0  0  0  0  0  0  0  0  0
   -4.2687    0.0494    1.8220 H   0  0  0  0  0  0  0  0  0  0  0  0
   -4.3450    0.7549    3.4315 H   0  0  0  0  0  0  0  0  0  0  0  0
   -3.8170    1.7443    2.0701 H   0  0  0  0  0  0  0  0  0  0  0  0
   -2.7390    0.7042   -0.0727 H   0  0  0  0  0  0  0  0  0  0  0  0
   -1.0789   -0.3528   -1.7764 H   0  0  0  0  0  0  0  0  0  0  0  0
    0.1406   -0.3075   -0.4971 H   0  0  0  0  0  0  0  0  0  0  0  0
   -0.5804    1.1873   -1.1363 H   0  0  0  0  0  0  0  0  0  0  0  0
   -3.2736   -1.5544    0.7947 H   0  0  0  0  0  0  0  0  0  0  0  0
   -1.5719   -2.0592    0.6574 H   0  0  0  0  0  0  0  0  0  0  0  0
   -2.5629   -1.7752   -0.7780 H   0  0  0  0  0  0  0  0  0  0  0  0
    3.8761    1.8385   -0.9448 O   0  0  0  0  0  0  0  0  0  0  0  0
    4.7467    2.2330   -0.6868 H   0  0  0  0  0  0  0  0  0  0  0  0
  1  2  1  0
  2  3  1  0
  4  3  1  1
  4  5  1  0
  4  6  2  0
  7  8  1  0
  8  9  1  0
  9 10  1  0
 10 11  1  0
 11 12  1  0
 11 13  1  0
 10 14  1  0
 14 15  1  0
 14 16  1  0
  1 17  1  0
  1 18  1  0
  1 19  1  0
  2 20  1  0
  2 21  1  0
  5 22  1  0
  5 23  1  0
  5 24  1  0
  8 25  1  0
  8 26  1  0
  9 27  1  0
  9 28  1  0
 10 29  1  0
 11 30  1  0
 12 31  1  0
 12 32  1  0
 12 33  1  0
 13 34  1  0
 13 35  1  0
 13 36  1  0
 14 37  1  0
 15 38  1  0
 15 39  1  0
 15 40  1  0
 16 41  1  0
 16 42  1  0
 16 43  1  0
 44 45  1  0
  4 44  1  0
  4  7  1  0
M  CHG  1  10   1
M  END
$$$$
