VX
     RDKit          3D

 45 44  0  0  0  0  0  0  0  0999 V2000
    4.8297   -1.7156    0.4179 C   0  0  0  0  0  0  0  0  0  0  0  0
    3.6235   -1.1000    1.0960 C   0  0  0  0  0  0  0  0  0  0  0  0
    3.0001   -0.1974    0.1983 O   0  0  0  0  0  0  0  0  0  0  0  0
    2.8357    1.3647    0.5728 P   0  0  0  0  0  0  0  0  0  0  0  0
    4.0411    2.1297    1.6423 C   0  0  0  0  0  0  0  0  0  0  0  0
    1.6880    2.1731    0.0344 O   0  0  0  0  0  0  0  0  0  0  0  0
    1.5388    0.7770    2.4549 S   0  0  0  0  0  0  0  0  0  0  0  0
   -0.1290    0.7193    1.7325 C   0  0  0  0  0  0  0  0  0  0  0  0
   -1.1604    0.3141    2.7855 C   0  0  0  0  0  0  0  0  0  0  0  0
   -2.6265    0.3912    2.3133 N   0  0  0  0  0  0  0  0  0  0  0  0
   -3.3127    1.7544    2.5328 C   0  0  0  0  0  0  0  0  0  0  0  0
   -3.3416    2.1139    4.0196 C   0  0  0  0  0  0  0  0  0  0  0  0
   -2.7049    2.8634    1.6890 C   0  0  0  0  0  0  0  0  0  0  0  0
   -2.8854   -0.2775    0.9422 C   0  0  0  0  0  0  0  0  0  0  0  0
   -4.3642   -0.2060    0.5558 C   0  0  0  0  0  0  0  0  0  0  0  0
   -2.4735   -1.7524    1.0105 C   0  0  0  0  0  0  0  0  0  0  0  0
    4.5359   -2.2220   -0.5074 H   0  0  0  0  0  0  0  0  0  0  0  0
    5.5543   -0.9429    0.1414 H   0  0  0  0  0  0  0  0  0  0  0  0
    5.3199   -2.4390    1.0755 H   0  0  0  0  0  0  0  0  0  0  0  0
    2.8973   -1.8781    1.3503 H   0  0  0  0  0  0  0  0  0  0  0  0
    3.9197   -0.6019    2.0237 H   0  0  0  0  0  0  0  0  0  0  0  0
    4.8907    2.4940    1.0580 H   0  0  0  0  0  0  0  0  0  0  0  0
    3.5958    2.9822    2.1633 H   0  0  0  0  0  0  0  0  0  0  0  0
    4.4159    1.4337    2.3971 H   0  0  0  0  0  0  0  0  0  0  0  0
   -0.1004    0.0035    0.9071 H   0  0  0  0  0  0  0  0  0  0  0  0
   -0.3451    1.7012    1.3135 H   0  0  0  0  0  0  0  0  0  0  0  0
   -1.0044   -0.7250    3.0984 H   0  0  0  0  0  0  0  0  0  0  0  0
   -1.0752    0.9252    3.6867 H   0  0  0  0  0  0  0  0  0  0  0  0
   -3.1236   -0.2200    2.9758 H   0  0  0  0  0  0  0  0  0  0  0  0
   -4.3575    1.6148    2.2438 H   0  0  0  0  0  0  0  0  0  0  0  0
   -2.3660    2.4402    4.3917 H   0  0  0  0  0  0  0  0  0  0  0  0
   -3.6832    1.2700    4.6278 H   0  0  0  0  0  0  0  0  0  0  0  0
   -4.0367    2.9444    4.1879 H   0  0  0  0  0  0  0  0  0  0  0  0
   -3.3505    3.7487    1.7189 H   0  0  0  0  0  0  0  0  0  0  0  0
   -2.6016    2.5733    0.6397 H   0  0  0  0  0  0  0  0  0  0  0  0
   -1.7285    3.1765    2.0696 H   0  0  0  0  0  0  0  0  0  0  0  0
   -2.2879    0.2581    0.1981 H   0  0  0  0  0  0  0  0  0  0  0  0
   -4.5613   -0.8179   -0.3318 H   0  0  0  0  0  0  0  0  0  0  0  0
   -5.0107   -0.5693    1.3619 H   0  0  0  0  0  0  0  0  0  0  0  0
   -4.6636    0.8137    0.2948 H   0  0  0  0  0  0  0  0  0  0  0  0
   -2.7041   -2.2593    0.0667 H   0  0  0  0  0  0  0  0  0  0  0  0
   -1.4009   -1.8792    1.1776 H   0  0  0  0  0  0  0  0  0  0  0  0
   -3.0061   -2.2781    1.8108 H   0  0  0  0  0  0  0  0  0  0  0  0
    3.8798    1.8378   -0.9424 O   0  0  0  0  0  0  0  0  0  0  0  0
    4.7504    2.2323   -0.6844 H   0  0  0  0  0  0  0  0  0  0  0  0
  1  2  1  0
  2  3  1  0
  4  3  1  1
  4  5  1  0
  4  6  2  0
  7  8  1  0
  8  9  1  0
  9 10  1  0
 10 11  1  0
 11 12  1  0
 11 13  1  0
 10 14  1  0
 14 15  1  0
 14 16  1  0
  1 17  1  0
  1 18  1  0
  1 19  1  0
  2 20  1  0
  2 21  1  0
  5 22  1  0
  5 23  1  0
  5 24  1  0
  8 25  1  0
  8 26  1  0
  9 27  1  0
  9 28  1  0
 10 29  1  0
 11 30  1  0
 12 31  1  0
 12 32  1  0
 12 33  1  0
 13 34  1  0
 13 35  1  0
 13 36  1  0
 14 37  1  0
 15 38  1  0
 15 39  1  0
 15 40  1  0
 16 41  1  0
 16 42  1  0
 16 43  1  0
 44 45  1  0
  4 44  1  0
  4  7  1  0
M  CHG  1  10   1
M  END
$$$$
