VX
     RDKit          3D

 45 44  0  0  0  0  0  0  0  0999 V2000
    2.5894   -0.9974   -2.0140 C   0  0  0  0  0  0  0  0  0  0  0  0
    3.6445   -0.5562   -1.0137 C   0  0  0  0  0  0  0  0  0  0  0  0
    3.0123   -0.1940    0.2078 O   0  0  0  0  0  0  0  0  0  0  0  0
    2.8268    1.3666    0.5673 P   0  0  0  0  0  0  0  0  0  0  0  0
    4.0361    2.1176    1.6351 C   0  0  0  0  0  0  0  0  0  0  0  0
    1.6897    2.1798    0.0376 O   0  0  0  0  0  0  0  0  0  0  0  0
    1.5299    0.7790    2.4494 S   0  0  0  0  0  0  0  0  0  0  0  0
    0.2003   -0.2204    1.7259 C   0  0  0  0  0  0  0  0  0  0  0  0
   -1.1281    0.5415    1.6102 C   0  0  0  0  0  0  0  0  0  0  0  0
   -1.3769    1.5177    2.7732 N   0  0  0  0  0  0  0  0  0  0  0  0
   -2.1390    2.7839    2.3203 C   0  0  0  0  0  0  0  0  0  0  0  0
   -3.4376    2.4209    1.5970 C   0  0  0  0  0  0  0  0  0  0  0  0
   -1.2353    3.6818    1.4765 C   0  0  0  0  0  0  0  0  0  0  0  0
   -1.9684    0.9254    4.0758 C   0  0  0  0  0  0  0  0  0  0  0  0
   -1.4321   -0.4717    4.4055 C   0  0  0  0  0  0  0  0  0  0  0  0
   -1.6415    1.8682    5.2505 C   0  0  0  0  0  0  0  0  0  0  0  0
    1.9534   -1.7880   -1.5963 H   0  0  0  0  0  0  0  0  0  0  0  0
    3.0556   -1.3631   -2.9374 H   0  0  0  0  0  0  0  0  0  0  0  0
    1.9218   -0.1586   -2.2699 H   0  0  0  0  0  0  0  0  0  0  0  0
    4.3356   -1.3828   -0.7984 H   0  0  0  0  0  0  0  0  0  0  0  0
    4.2269    0.2761   -1.4185 H   0  0  0  0  0  0  0  0  0  0  0  0
    4.9170    2.4644    1.0861 H   0  0  0  0  0  0  0  0  0  0  0  0
    3.5967    2.9773    2.1532 H   0  0  0  0  0  0  0  0  0  0  0  0
    4.3695    1.3956    2.3844 H   0  0  0  0  0  0  0  0  0  0  0  0
    0.5032   -0.5691    0.7326 H   0  0  0  0  0  0  0  0  0  0  0  0
    0.0784   -1.1199    2.3268 H   0  0  0  0  0  0  0  0  0  0  0  0
   -1.0864    1.1289    0.6826 H   0  0  0  0  0  0  0  0  0  0  0  0
   -1.9940   -0.1282    1.5376 H   0  0  0  0  0  0  0  0  0  0  0  0
   -0.4298    1.8402    3.0221 H   0  0  0  0  0  0  0  0  0  0  0  0
   -2.3877    3.3451    3.2247 H   0  0  0  0  0  0  0  0  0  0  0  0
   -3.2471    1.9550    0.6253 H   0  0  0  0  0  0  0  0  0  0  0  0
   -4.0595    1.7415    2.1928 H   0  0  0  0  0  0  0  0  0  0  0  0
   -4.0359    3.3208    1.4113 H   0  0  0  0  0  0  0  0  0  0  0  0
   -1.7613    4.6114    1.2293 H   0  0  0  0  0  0  0  0  0  0  0  0
   -0.9371    3.2195    0.5316 H   0  0  0  0  0  0  0  0  0  0  0  0
   -0.3270    3.9581    2.0203 H   0  0  0  0  0  0  0  0  0  0  0  0
   -3.0550    0.8554    3.9365 H   0  0  0  0  0  0  0  0  0  0  0  0
   -0.3436   -0.4701    4.5280 H   0  0  0  0  0  0  0  0  0  0  0  0
   -1.7238   -1.2074    3.6464 H   0  0  0  0  0  0  0  0  0  0  0  0
   -1.8494   -0.8274    5.3507 H   0  0  0  0  0  0  0  0  0  0  0  0
   -2.2595    2.7803    5.2241 H   0  0  0  0  0  0  0  0  0  0  0  0
   -0.5786    2.1711    5.2507 H   0  0  0  0  0  0  0  0  0  0  0  0
   -1.8509    1.3781    6.2115 H   0  0  0  0  0  0  0  0  0  0  0  0
    3.8709    1.8397   -0.9480 O   0  0  0  0  0  0  0  0  0  0  0  0
    4.7415    2.2341   -0.6899 H   0  0  0  0  0  0  0  0  0  0  0  0
  1  2  1  0
  2  3  1  0
  4  3  1  1
  4  5  1  0
  4  6  2  0
  7  8  1  0
  8  9  1  0
  9 10  1  0
 10 11  1  0
 11 12  1  0
 11 13  1  0
 10 14  1  0
 14 15  1  0
 14 16  1  0
  1 17  1  0
  1 18  1  0
  1 19  1  0
  2 20  1  0
  2 21  1  0
  5 22  1  0
  5 23  1  0
  5 24  1  0
  8 25  1  0
  8 26  1  0
  9 27  1  0
  9 28  1  0
 10 29  1  0
 11 30  1  0
 12 31  1  0
 12 32  1  0
 12 33  1  0
 13 34  1  0
 13 35  1  0
 13 36  1  0
 14 37  1  0
 15 38  1  0
 15 39  1  0
 15 40  1  0
 16 41  1  0
 16 42  1  0
 16 43  1  0
 44 45  1  0
  4 44  1  0
  4  7  1  0
M  CHG  1  10   1
M  END
$$$$
