VX
     RDKit          3D

 45 44  0  0  0  0  0  0  0  0999 V2000
    2.9492    2.4557    1.0693 C   0  0  0  0  0  0  0  0  0  0  0  0
    3.8176    1.2233    0.9191 C   0  0  0  0  0  0  0  0  0  0  0  0
    2.9940    0.0667    0.9862 O   0  0  0  0  0  0  0  0  0  0  0  0
    2.6867   -0.7344   -0.3853 P   0  0  0  0  0  0  0  0  0  0  0  0
    3.5462   -2.2677   -0.6780 C   0  0  0  0  0  0  0  0  0  0  0  0
    1.7073   -0.2180   -1.3981 O   0  0  0  0  0  0  0  0  0  0  0  0
    0.9500   -1.9138    0.6928 S   0  0  0  0  0  0  0  0  0  0  0  0
   -0.4499   -0.7824    0.4716 C   0  0  0  0  0  0  0  0  0  0  0  0
   -1.6886   -1.0789    1.3165 C   0  0  0  0  0  0  0  0  0  0  0  0
   -1.5689   -0.9627    2.8457 N   0  0  0  0  0  0  0  0  0  0  0  0
   -0.8993   -2.1591    3.5692 C   0  0  0  0  0  0  0  0  0  0  0  0
   -1.1228   -2.0520    5.0832 C   0  0  0  0  0  0  0  0  0  0  0  0
   -1.4973   -3.4869    3.0948 C   0  0  0  0  0  0  0  0  0  0  0  0
   -1.1998    0.4250    3.4061 C   0  0  0  0  0  0  0  0  0  0  0  0
   -1.9926    1.5329    2.7156 C   0  0  0  0  0  0  0  0  0  0  0  0
    0.2987    0.7082    3.4083 C   0  0  0  0  0  0  0  0  0  0  0  0
    3.5557    3.3657    1.0472 H   0  0  0  0  0  0  0  0  0  0  0  0
    2.2054    2.5063    0.2672 H   0  0  0  0  0  0  0  0  0  0  0  0
    2.3954    2.4233    2.0139 H   0  0  0  0  0  0  0  0  0  0  0  0
    4.5409    1.1694    1.7385 H   0  0  0  0  0  0  0  0  0  0  0  0
    4.3756    1.2557   -0.0220 H   0  0  0  0  0  0  0  0  0  0  0  0
    3.7456   -2.7860    0.2640 H   0  0  0  0  0  0  0  0  0  0  0  0
    2.9463   -2.9273   -1.3116 H   0  0  0  0  0  0  0  0  0  0  0  0
    4.5013   -2.0902   -1.1797 H   0  0  0  0  0  0  0  0  0  0  0  0
   -0.1143    0.2452    0.6147 H   0  0  0  0  0  0  0  0  0  0  0  0
   -0.7404   -0.8555   -0.5819 H   0  0  0  0  0  0  0  0  0  0  0  0
   -2.0950   -2.0678    1.0866 H   0  0  0  0  0  0  0  0  0  0  0  0
   -2.4847   -0.3819    1.0305 H   0  0  0  0  0  0  0  0  0  0  0  0
   -2.5511   -1.0616    3.1356 H   0  0  0  0  0  0  0  0  0  0  0  0
    0.1706   -2.1255    3.3585 H   0  0  0  0  0  0  0  0  0  0  0  0
   -0.7561   -2.9507    5.5920 H   0  0  0  0  0  0  0  0  0  0  0  0
   -0.5773   -1.2107    5.5193 H   0  0  0  0  0  0  0  0  0  0  0  0
   -2.1850   -1.9405    5.3260 H   0  0  0  0  0  0  0  0  0  0  0  0
   -1.1328   -4.3159    3.7114 H   0  0  0  0  0  0  0  0  0  0  0  0
   -1.2105   -3.7250    2.0673 H   0  0  0  0  0  0  0  0  0  0  0  0
   -2.5906   -3.4803    3.1588 H   0  0  0  0  0  0  0  0  0  0  0  0
   -1.5479    0.4115    4.4446 H   0  0  0  0  0  0  0  0  0  0  0  0
   -3.0640    1.3052    2.7026 H   0  0  0  0  0  0  0  0  0  0  0  0
   -1.6588    1.7073    1.6881 H   0  0  0  0  0  0  0  0  0  0  0  0
   -1.8653    2.4777    3.2567 H   0  0  0  0  0  0  0  0  0  0  0  0
    0.8764   -0.0852    3.8884 H   0  0  0  0  0  0  0  0  0  0  0  0
    0.7053    0.8712    2.4106 H   0  0  0  0  0  0  0  0  0  0  0  0
    0.4958    1.6257    3.9756 H   0  0  0  0  0  0  0  0  0  0  0  0
    4.0849    0.2151   -1.2533 O   0  0  0  0  0  0  0  0  0  0  0  0
    4.7047    0.6361   -0.6062 H   0  0  0  0  0  0  0  0  0  0  0  0
  1  2  1  0
  2  3  1  0
  4  3  1  1
  4  5  1  0
  4  6  2  0
  7  8  1  0
  8  9  1  0
  9 10  1  0
 10 11  1  0
 11 12  1  0
 11 13  1  0
 10 14  1  0
 14 15  1  0
 14 16  1  0
  1 17  1  0
  1 18  1  0
  1 19  1  0
  2 20  1  0
  2 21  1  0
  5 22  1  0
  5 23  1  0
  5 24  1  0
  8 25  1  0
  8 26  1  0
  9 27  1  0
  9 28  1  0
 10 29  1  0
 11 30  1  0
 12 31  1  0
 12 32  1  0
 12 33  1  0
 13 34  1  0
 13 35  1  0
 13 36  1  0
 14 37  1  0
 15 38  1  0
 15 39  1  0
 15 40  1  0
 16 41  1  0
 16 42  1  0
 16 43  1  0
 44 45  1  0
  4 44  1  0
  4  7  1  0
M  CHG  1  10   1
M  END
$$$$
