VX
     RDKit          3D

 45 44  0  0  0  0  0  0  0  0999 V2000
    5.0858    0.8961    1.7958 C   0  0  0  0  0  0  0  0  0  0  0  0
    3.8719    1.1943    0.9462 C   0  0  0  0  0  0  0  0  0  0  0  0
    2.9841    0.0827    0.9877 O   0  0  0  0  0  0  0  0  0  0  0  0
    2.6960   -0.7438   -0.3806 P   0  0  0  0  0  0  0  0  0  0  0  0
    3.5485   -2.2805   -0.6884 C   0  0  0  0  0  0  0  0  0  0  0  0
    1.7057   -0.2117   -1.3938 O   0  0  0  0  0  0  0  0  0  0  0  0
    0.9592   -1.9232    0.6975 S   0  0  0  0  0  0  0  0  0  0  0  0
    0.1485   -0.6466    1.7243 C   0  0  0  0  0  0  0  0  0  0  0  0
   -0.3085    0.5944    0.9330 C   0  0  0  0  0  0  0  0  0  0  0  0
   -1.2401    0.2933   -0.2510 N   0  0  0  0  0  0  0  0  0  0  0  0
   -1.4675    1.4883   -1.2215 C   0  0  0  0  0  0  0  0  0  0  0  0
   -0.3340    2.5161   -1.2446 C   0  0  0  0  0  0  0  0  0  0  0  0
   -1.6822    0.9225   -2.6348 C   0  0  0  0  0  0  0  0  0  0  0  0
   -2.6118   -0.3411    0.0895 C   0  0  0  0  0  0  0  0  0  0  0  0
   -2.5501   -1.8572    0.0790 C   0  0  0  0  0  0  0  0  0  0  0  0
   -3.2185    0.2318    1.3718 C   0  0  0  0  0  0  0  0  0  0  0  0
    5.7242    1.7855    1.8680 H   0  0  0  0  0  0  0  0  0  0  0  0
    5.6689    0.0727    1.3593 H   0  0  0  0  0  0  0  0  0  0  0  0
    4.8058    0.5692    2.7992 H   0  0  0  0  0  0  0  0  0  0  0  0
    3.3395    2.0690    1.3413 H   0  0  0  0  0  0  0  0  0  0  0  0
    4.1721    1.4273   -0.0786 H   0  0  0  0  0  0  0  0  0  0  0  0
    4.5515   -2.1269   -1.0980 H   0  0  0  0  0  0  0  0  0  0  0  0
    3.6594   -2.8141    0.2569 H   0  0  0  0  0  0  0  0  0  0  0  0
    2.9818   -2.9179   -1.3783 H   0  0  0  0  0  0  0  0  0  0  0  0
   -0.6974   -1.0989    2.2554 H   0  0  0  0  0  0  0  0  0  0  0  0
    0.8554   -0.3352    2.4959 H   0  0  0  0  0  0  0  0  0  0  0  0
    0.5837    1.0795    0.5385 H   0  0  0  0  0  0  0  0  0  0  0  0
   -0.8130    1.3091    1.5872 H   0  0  0  0  0  0  0  0  0  0  0  0
   -0.7101   -0.3959   -0.8107 H   0  0  0  0  0  0  0  0  0  0  0  0
   -2.3697    2.0019   -0.8691 H   0  0  0  0  0  0  0  0  0  0  0  0
   -0.1946    2.9883   -0.2658 H   0  0  0  0  0  0  0  0  0  0  0  0
    0.6132    2.0850   -1.5843 H   0  0  0  0  0  0  0  0  0  0  0  0
   -0.5830    3.3312   -1.9336 H   0  0  0  0  0  0  0  0  0  0  0  0
   -2.6313    0.3783   -2.7227 H   0  0  0  0  0  0  0  0  0  0  0  0
   -1.7015    1.7299   -3.3825 H   0  0  0  0  0  0  0  0  0  0  0  0
   -0.8673    0.2320   -2.9092 H   0  0  0  0  0  0  0  0  0  0  0  0
   -3.2891   -0.0695   -0.7269 H   0  0  0  0  0  0  0  0  0  0  0  0
   -1.9767   -2.2672    0.9175 H   0  0  0  0  0  0  0  0  0  0  0  0
   -3.5654   -2.2662    0.1551 H   0  0  0  0  0  0  0  0  0  0  0  0
   -2.1270   -2.2180   -0.8638 H   0  0  0  0  0  0  0  0  0  0  0  0
   -4.2677   -0.0582    1.4405 H   0  0  0  0  0  0  0  0  0  0  0  0
   -3.1910    1.3190    1.3731 H   0  0  0  0  0  0  0  0  0  0  0  0
   -2.7170   -0.1244    2.2762 H   0  0  0  0  0  0  0  0  0  0  0  0
    4.0943    0.2057   -1.2485 O   0  0  0  0  0  0  0  0  0  0  0  0
    4.7141    0.6266   -0.6014 H   0  0  0  0  0  0  0  0  0  0  0  0
  1  2  1  0
  2  3  1  0
  4  3  1  1
  4  5  1  0
  4  6  2  0
  7  8  1  0
  8  9  1  0
  9 10  1  0
 10 11  1  0
 11 12  1  0
 11 13  1  0
 10 14  1  0
 14 15  1  0
 14 16  1  0
  1 17  1  0
  1 18  1  0
  1 19  1  0
  2 20  1  0
  2 21  1  0
  5 22  1  0
  5 23  1  0
  5 24  1  0
  8 25  1  0
  8 26  1  0
  9 27  1  0
  9 28  1  0
 10 29  1  0
 11 30  1  0
 12 31  1  0
 12 32  1  0
 12 33  1  0
 13 34  1  0
 13 35  1  0
 13 36  1  0
 14 37  1  0
 15 38  1  0
 15 39  1  0
 15 40  1  0
 16 41  1  0
 16 42  1  0
 16 43  1  0
 44 45  1  0
  4 44  1  0
  4  7  1  0
M  CHG  1  10   1
M  END
$$$$
