VX
     RDKit          3D

 45 44  0  0  0  0  0  0  0  0999 V2000
    2.4196   -1.0159   -1.9675 C   0  0  0  0  0  0  0  0  0  0  0  0
    3.5415   -0.5472   -1.0637 C   0  0  0  0  0  0  0  0  0  0  0  0
    3.0074   -0.1954    0.2039 O   0  0  0  0  0  0  0  0  0  0  0  0
    2.8318    1.3649    0.5702 P   0  0  0  0  0  0  0  0  0  0  0  0
    4.0393    2.1225    1.6388 C   0  0  0  0  0  0  0  0  0  0  0  0
    1.6864    2.1781    0.0349 O   0  0  0  0  0  0  0  0  0  0  0  0
    1.5349    0.7772    2.4523 S   0  0  0  0  0  0  0  0  0  0  0  0
    0.6156    2.2999    2.8416 C   0  0  0  0  0  0  0  0  0  0  0  0
   -0.8994    2.0542    2.8342 C   0  0  0  0  0  0  0  0  0  0  0  0
   -1.3728    1.2994    1.5773 N   0  0  0  0  0  0  0  0  0  0  0  0
   -1.4504    2.2102    0.3444 C   0  0  0  0  0  0  0  0  0  0  0  0
   -1.1391    1.4431   -0.9390 C   0  0  0  0  0  0  0  0  0  0  0  0
   -2.7568    2.9823    0.2474 C   0  0  0  0  0  0  0  0  0  0  0  0
   -2.4743    0.2915    1.9156 C   0  0  0  0  0  0  0  0  0  0  0  0
   -3.7333    0.9337    2.4918 C   0  0  0  0  0  0  0  0  0  0  0  0
   -2.7871   -0.6418    0.7557 C   0  0  0  0  0  0  0  0  0  0  0  0
    1.6932   -0.2134   -2.1316 H   0  0  0  0  0  0  0  0  0  0  0  0
    2.8095   -1.3381   -2.9370 H   0  0  0  0  0  0  0  0  0  0  0  0
    1.8760   -1.8489   -1.5095 H   0  0  0  0  0  0  0  0  0  0  0  0
    4.2636   -1.3550   -0.9105 H   0  0  0  0  0  0  0  0  0  0  0  0
    4.0714    0.2982   -1.5141 H   0  0  0  0  0  0  0  0  0  0  0  0
    3.5853    2.9352    2.2125 H   0  0  0  0  0  0  0  0  0  0  0  0
    4.4449    1.3910    2.3433 H   0  0  0  0  0  0  0  0  0  0  0  0
    4.8702    2.5386    1.0625 H   0  0  0  0  0  0  0  0  0  0  0  0
    0.9242    2.6460    3.8332 H   0  0  0  0  0  0  0  0  0  0  0  0
    0.8816    3.0893    2.1344 H   0  0  0  0  0  0  0  0  0  0  0  0
   -1.4608    2.9916    2.8975 H   0  0  0  0  0  0  0  0  0  0  0  0
   -1.1589    1.4393    3.7038 H   0  0  0  0  0  0  0  0  0  0  0  0
   -0.5623    0.6912    1.3765 H   0  0  0  0  0  0  0  0  0  0  0  0
   -0.6472    2.9414    0.4781 H   0  0  0  0  0  0  0  0  0  0  0  0
   -0.3177    0.7336   -0.8046 H   0  0  0  0  0  0  0  0  0  0  0  0
   -0.8426    2.1459   -1.7261 H   0  0  0  0  0  0  0  0  0  0  0  0
   -2.0037    0.8981   -1.3241 H   0  0  0  0  0  0  0  0  0  0  0  0
   -3.0149    3.4720    1.1908 H   0  0  0  0  0  0  0  0  0  0  0  0
   -2.6679    3.7683   -0.5118 H   0  0  0  0  0  0  0  0  0  0  0  0
   -3.5877    2.3431   -0.0633 H   0  0  0  0  0  0  0  0  0  0  0  0
   -2.0309   -0.3319    2.7034 H   0  0  0  0  0  0  0  0  0  0  0  0
   -4.3648    0.1591    2.9432 H   0  0  0  0  0  0  0  0  0  0  0  0
   -4.3451    1.4234    1.7321 H   0  0  0  0  0  0  0  0  0  0  0  0
   -3.5113    1.6604    3.2779 H   0  0  0  0  0  0  0  0  0  0  0  0
   -3.3745   -0.1463   -0.0215 H   0  0  0  0  0  0  0  0  0  0  0  0
   -3.3865   -1.4884    1.1090 H   0  0  0  0  0  0  0  0  0  0  0  0
   -1.8749   -1.0534    0.3133 H   0  0  0  0  0  0  0  0  0  0  0  0
    3.8759    1.8380   -0.9450 O   0  0  0  0  0  0  0  0  0  0  0  0
    4.7465    2.2325   -0.6870 H   0  0  0  0  0  0  0  0  0  0  0  0
  1  2  1  0
  2  3  1  0
  4  3  1  1
  4  5  1  0
  4  6  2  0
  7  8  1  0
  8  9  1  0
  9 10  1  0
 10 11  1  0
 11 12  1  0
 11 13  1  0
 10 14  1  0
 14 15  1  0
 14 16  1  0
  1 17  1  0
  1 18  1  0
  1 19  1  0
  2 20  1  0
  2 21  1  0
  5 22  1  0
  5 23  1  0
  5 24  1  0
  8 25  1  0
  8 26  1  0
  9 27  1  0
  9 28  1  0
 10 29  1  0
 11 30  1  0
 12 31  1  0
 12 32  1  0
 12 33  1  0
 13 34  1  0
 13 35  1  0
 13 36  1  0
 14 37  1  0
 15 38  1  0
 15 39  1  0
 15 40  1  0
 16 41  1  0
 16 42  1  0
 16 43  1  0
 44 45  1  0
  4 44  1  0
  4  7  1  0
M  CHG  1  10   1
M  END
$$$$
