VX
     RDKit          3D

 45 44  0  0  0  0  0  0  0  0999 V2000
    3.3326   -2.4880    0.7483 C   0  0  0  0  0  0  0  0  0  0  0  0
    3.7586   -1.0607    1.0228 C   0  0  0  0  0  0  0  0  0  0  0  0
    2.9971   -0.1961    0.1967 O   0  0  0  0  0  0  0  0  0  0  0  0
    2.8377    1.3644    0.5741 P   0  0  0  0  0  0  0  0  0  0  0  0
    4.0407    2.1314    1.6425 C   0  0  0  0  0  0  0  0  0  0  0  0
    1.6894    2.1704    0.0345 O   0  0  0  0  0  0  0  0  0  0  0  0
    1.5409    0.7767    2.4562 S   0  0  0  0  0  0  0  0  0  0  0  0
    0.2989    2.1099    2.5421 C   0  0  0  0  0  0  0  0  0  0  0  0
   -0.8691    1.9080    1.5586 C   0  0  0  0  0  0  0  0  0  0  0  0
   -1.4215    0.4759    1.5692 N   0  0  0  0  0  0  0  0  0  0  0  0
   -2.5119    0.1384    2.5965 C   0  0  0  0  0  0  0  0  0  0  0  0
   -3.8374    0.8300    2.2976 C   0  0  0  0  0  0  0  0  0  0  0  0
   -2.0523    0.4238    4.0210 C   0  0  0  0  0  0  0  0  0  0  0  0
   -1.7363   -0.1069    0.1726 C   0  0  0  0  0  0  0  0  0  0  0  0
   -2.3965    0.9029   -0.7658 C   0  0  0  0  0  0  0  0  0  0  0  0
   -0.4617   -0.6836   -0.4389 C   0  0  0  0  0  0  0  0  0  0  0  0
    2.2664   -2.6190    0.9614 H   0  0  0  0  0  0  0  0  0  0  0  0
    3.4793   -2.7387   -0.3075 H   0  0  0  0  0  0  0  0  0  0  0  0
    3.9042   -3.1909    1.3609 H   0  0  0  0  0  0  0  0  0  0  0  0
    3.6004   -0.8194    2.0779 H   0  0  0  0  0  0  0  0  0  0  0  0
    4.8192   -0.9326    0.7863 H   0  0  0  0  0  0  0  0  0  0  0  0
    4.4130    1.4308    2.3948 H   0  0  0  0  0  0  0  0  0  0  0  0
    3.5945    2.9820    2.1660 H   0  0  0  0  0  0  0  0  0  0  0  0
    4.8909    2.4971    1.0601 H   0  0  0  0  0  0  0  0  0  0  0  0
   -0.0599    2.1601    3.5714 H   0  0  0  0  0  0  0  0  0  0  0  0
    0.7888    3.0687    2.3425 H   0  0  0  0  0  0  0  0  0  0  0  0
   -1.6919    2.5950    1.7721 H   0  0  0  0  0  0  0  0  0  0  0  0
   -0.5164    2.1169    0.5489 H   0  0  0  0  0  0  0  0  0  0  0  0
   -0.6107   -0.0786    1.8876 H   0  0  0  0  0  0  0  0  0  0  0  0
   -2.6527   -0.9469    2.5183 H   0  0  0  0  0  0  0  0  0  0  0  0
   -4.2765    0.4683    1.3640 H   0  0  0  0  0  0  0  0  0  0  0  0
   -3.7391    1.9174    2.2410 H   0  0  0  0  0  0  0  0  0  0  0  0
   -4.5657    0.6093    3.0866 H   0  0  0  0  0  0  0  0  0  0  0  0
   -2.7562   -0.0172    4.7364 H   0  0  0  0  0  0  0  0  0  0  0  0
   -1.0710   -0.0148    4.2245 H   0  0  0  0  0  0  0  0  0  0  0  0
   -2.0214    1.4967    4.2315 H   0  0  0  0  0  0  0  0  0  0  0  0
   -2.4275   -0.9411    0.3396 H   0  0  0  0  0  0  0  0  0  0  0  0
   -1.6783    1.6197   -1.1766 H   0  0  0  0  0  0  0  0  0  0  0  0
   -2.8339    0.3769   -1.6220 H   0  0  0  0  0  0  0  0  0  0  0  0
   -3.1975    1.4685   -0.2857 H   0  0  0  0  0  0  0  0  0  0  0  0
    0.0057   -1.4147    0.2292 H   0  0  0  0  0  0  0  0  0  0  0  0
    0.2692    0.0965   -0.6628 H   0  0  0  0  0  0  0  0  0  0  0  0
   -0.6909   -1.1974   -1.3789 H   0  0  0  0  0  0  0  0  0  0  0  0
    3.8818    1.8376   -0.9412 O   0  0  0  0  0  0  0  0  0  0  0  0
    4.7523    2.2321   -0.6832 H   0  0  0  0  0  0  0  0  0  0  0  0
  1  2  1  0
  2  3  1  0
  4  3  1  1
  4  5  1  0
  4  6  2  0
  7  8  1  0
  8  9  1  0
  9 10  1  0
 10 11  1  0
 11 12  1  0
 11 13  1  0
 10 14  1  0
 14 15  1  0
 14 16  1  0
  1 17  1  0
  1 18  1  0
  1 19  1  0
  2 20  1  0
  2 21  1  0
  5 22  1  0
  5 23  1  0
  5 24  1  0
  8 25  1  0
  8 26  1  0
  9 27  1  0
  9 28  1  0
 10 29  1  0
 11 30  1  0
 12 31  1  0
 12 32  1  0
 12 33  1  0
 13 34  1  0
 13 35  1  0
 13 36  1  0
 14 37  1  0
 15 38  1  0
 15 39  1  0
 15 40  1  0
 16 41  1  0
 16 42  1  0
 16 43  1  0
 44 45  1  0
  4 44  1  0
  4  7  1  0
M  CHG  1  10   1
M  END
$$$$
