VX
     RDKit          3D

 45 44  0  0  0  0  0  0  0  0999 V2000
    3.3283   -2.4950    0.7219 C   0  0  0  0  0  0  0  0  0  0  0  0
    3.7398   -1.0689    1.0241 C   0  0  0  0  0  0  0  0  0  0  0  0
    2.9916   -0.1969    0.1926 O   0  0  0  0  0  0  0  0  0  0  0  0
    2.8421    1.3639    0.5769 P   0  0  0  0  0  0  0  0  0  0  0  0
    4.0414    2.1362    1.6445 C   0  0  0  0  0  0  0  0  0  0  0  0
    1.6899    2.1670    0.0337 O   0  0  0  0  0  0  0  0  0  0  0  0
    1.5452    0.7762    2.4590 S   0  0  0  0  0  0  0  0  0  0  0  0
   -0.0788    0.4662    1.7008 C   0  0  0  0  0  0  0  0  0  0  0  0
   -0.8534    1.7762    1.5245 C   0  0  0  0  0  0  0  0  0  0  0  0
   -2.1306    1.6238    0.6778 N   0  0  0  0  0  0  0  0  0  0  0  0
   -3.2265    0.7260    1.2764 C   0  0  0  0  0  0  0  0  0  0  0  0
   -3.4015    1.0018    2.7747 C   0  0  0  0  0  0  0  0  0  0  0  0
   -4.5687    1.0030    0.5949 C   0  0  0  0  0  0  0  0  0  0  0  0
   -1.7605    1.4399   -0.8166 C   0  0  0  0  0  0  0  0  0  0  0  0
   -2.5362    2.4447   -1.6665 C   0  0  0  0  0  0  0  0  0  0  0  0
   -1.9179    0.0065   -1.3134 C   0  0  0  0  0  0  0  0  0  0  0  0
    3.8911   -3.2025    1.3372 H   0  0  0  0  0  0  0  0  0  0  0  0
    2.2587   -2.6350    0.9107 H   0  0  0  0  0  0  0  0  0  0  0  0
    3.4990   -2.7307   -0.3337 H   0  0  0  0  0  0  0  0  0  0  0  0
    3.5573   -0.8423    2.0785 H   0  0  0  0  0  0  0  0  0  0  0  0
    4.8046   -0.9330    0.8125 H   0  0  0  0  0  0  0  0  0  0  0  0
    3.5929    2.9870    2.1656 H   0  0  0  0  0  0  0  0  0  0  0  0
    4.8915    2.5026    1.0624 H   0  0  0  0  0  0  0  0  0  0  0  0
    4.4146    1.4384    2.3989 H   0  0  0  0  0  0  0  0  0  0  0  0
    0.1005   -0.0336    0.7476 H   0  0  0  0  0  0  0  0  0  0  0  0
   -0.6287   -0.2280    2.3417 H   0  0  0  0  0  0  0  0  0  0  0  0
   -1.1558    2.1942    2.4904 H   0  0  0  0  0  0  0  0  0  0  0  0
   -0.2706    2.5622    1.0364 H   0  0  0  0  0  0  0  0  0  0  0  0
   -2.5291    2.5711    0.7261 H   0  0  0  0  0  0  0  0  0  0  0  0
   -2.9184   -0.3139    1.1318 H   0  0  0  0  0  0  0  0  0  0  0  0
   -4.2589    0.4458    3.1709 H   0  0  0  0  0  0  0  0  0  0  0  0
   -2.5341    0.6788    3.3567 H   0  0  0  0  0  0  0  0  0  0  0  0
   -3.5757    2.0656    2.9699 H   0  0  0  0  0  0  0  0  0  0  0  0
   -4.5822    0.6921   -0.4502 H   0  0  0  0  0  0  0  0  0  0  0  0
   -5.3725    0.4449    1.0886 H   0  0  0  0  0  0  0  0  0  0  0  0
   -4.8283    2.0665    0.6394 H   0  0  0  0  0  0  0  0  0  0  0  0
   -0.7026    1.7082   -0.9068 H   0  0  0  0  0  0  0  0  0  0  0  0
   -2.1988    2.3981   -2.7079 H   0  0  0  0  0  0  0  0  0  0  0  0
   -2.3684    3.4682   -1.3140 H   0  0  0  0  0  0  0  0  0  0  0  0
   -3.6121    2.2585   -1.6649 H   0  0  0  0  0  0  0  0  0  0  0  0
   -1.4138   -0.7152   -0.6662 H   0  0  0  0  0  0  0  0  0  0  0  0
   -1.4718   -0.0887   -2.3101 H   0  0  0  0  0  0  0  0  0  0  0  0
   -2.9624   -0.2973   -1.4102 H   0  0  0  0  0  0  0  0  0  0  0  0
    3.8862    1.8370   -0.9383 O   0  0  0  0  0  0  0  0  0  0  0  0
    4.7568    2.2315   -0.6803 H   0  0  0  0  0  0  0  0  0  0  0  0
  1  2  1  0
  2  3  1  0
  4  3  1  1
  4  5  1  0
  4  6  2  0
  7  8  1  0
  8  9  1  0
  9 10  1  0
 10 11  1  0
 11 12  1  0
 11 13  1  0
 10 14  1  0
 14 15  1  0
 14 16  1  0
  1 17  1  0
  1 18  1  0
  1 19  1  0
  2 20  1  0
  2 21  1  0
  5 22  1  0
  5 23  1  0
  5 24  1  0
  8 25  1  0
  8 26  1  0
  9 27  1  0
  9 28  1  0
 10 29  1  0
 11 30  1  0
 12 31  1  0
 12 32  1  0
 12 33  1  0
 13 34  1  0
 13 35  1  0
 13 36  1  0
 14 37  1  0
 15 38  1  0
 15 39  1  0
 15 40  1  0
 16 41  1  0
 16 42  1  0
 16 43  1  0
 44 45  1  0
  4 44  1  0
  4  7  1  0
M  CHG  1  10   1
M  END
$$$$
