VX
     RDKit          3D

 45 44  0  0  0  0  0  0  0  0999 V2000
    3.0854   -1.4613    2.8551 C   0  0  0  0  0  0  0  0  0  0  0  0
    3.7899   -0.4013    2.0347 C   0  0  0  0  0  0  0  0  0  0  0  0
    2.9792    0.0817    0.9788 O   0  0  0  0  0  0  0  0  0  0  0  0
    2.6965   -0.7435   -0.3794 P   0  0  0  0  0  0  0  0  0  0  0  0
    3.5468   -2.2790   -0.6895 C   0  0  0  0  0  0  0  0  0  0  0  0
    1.7118   -0.2126   -1.3850 O   0  0  0  0  0  0  0  0  0  0  0  0
    0.9598   -1.9229    0.6987 S   0  0  0  0  0  0  0  0  0  0  0  0
   -0.4123   -0.7484    0.5422 C   0  0  0  0  0  0  0  0  0  0  0  0
   -1.6816   -1.2946    1.1925 C   0  0  0  0  0  0  0  0  0  0  0  0
   -2.8443   -0.2901    1.0180 N   0  0  0  0  0  0  0  0  0  0  0  0
   -4.0139   -0.8533    0.1909 C   0  0  0  0  0  0  0  0  0  0  0  0
   -3.5388   -1.2168   -1.2167 C   0  0  0  0  0  0  0  0  0  0  0  0
   -4.6999   -2.0181    0.8972 C   0  0  0  0  0  0  0  0  0  0  0  0
   -3.2402    0.3798    2.3532 C   0  0  0  0  0  0  0  0  0  0  0  0
   -4.4152    1.3404    2.1636 C   0  0  0  0  0  0  0  0  0  0  0  0
   -2.0478    1.1698    2.9031 C   0  0  0  0  0  0  0  0  0  0  0  0
    3.6585   -1.6931    3.7577 H   0  0  0  0  0  0  0  0  0  0  0  0
    2.0837   -1.1296    3.1461 H   0  0  0  0  0  0  0  0  0  0  0  0
    2.9731   -2.3868    2.2839 H   0  0  0  0  0  0  0  0  0  0  0  0
    4.7475   -0.7647    1.6528 H   0  0  0  0  0  0  0  0  0  0  0  0
    4.0127    0.4556    2.6788 H   0  0  0  0  0  0  0  0  0  0  0  0
    4.5148   -2.0945   -1.1637 H   0  0  0  0  0  0  0  0  0  0  0  0
    2.9549   -2.9070   -1.3620 H   0  0  0  0  0  0  0  0  0  0  0  0
    3.7106   -2.8428    0.2328 H   0  0  0  0  0  0  0  0  0  0  0  0
   -0.5914   -0.5634   -0.5213 H   0  0  0  0  0  0  0  0  0  0  0  0
   -0.1111    0.1977    1.0007 H   0  0  0  0  0  0  0  0  0  0  0  0
   -1.9698   -2.2432    0.7331 H   0  0  0  0  0  0  0  0  0  0  0  0
   -1.5554   -1.4823    2.2640 H   0  0  0  0  0  0  0  0  0  0  0  0
   -2.4859    0.4832    0.4397 H   0  0  0  0  0  0  0  0  0  0  0  0
   -4.7252   -0.0314    0.0681 H   0  0  0  0  0  0  0  0  0  0  0  0
   -4.3988   -1.4561   -1.8520 H   0  0  0  0  0  0  0  0  0  0  0  0
   -3.0091   -0.3787   -1.6818 H   0  0  0  0  0  0  0  0  0  0  0  0
   -2.8788   -2.0889   -1.2290 H   0  0  0  0  0  0  0  0  0  0  0  0
   -5.5630   -2.3545    0.3118 H   0  0  0  0  0  0  0  0  0  0  0  0
   -4.0396   -2.8808    1.0233 H   0  0  0  0  0  0  0  0  0  0  0  0
   -5.0730   -1.7302    1.8843 H   0  0  0  0  0  0  0  0  0  0  0  0
   -3.5146   -0.4225    3.0467 H   0  0  0  0  0  0  0  0  0  0  0  0
   -4.2289    2.0489    1.3493 H   0  0  0  0  0  0  0  0  0  0  0  0
   -4.5912    1.9198    3.0770 H   0  0  0  0  0  0  0  0  0  0  0  0
   -5.3471    0.8058    1.9567 H   0  0  0  0  0  0  0  0  0  0  0  0
   -1.6903    1.9095    2.1785 H   0  0  0  0  0  0  0  0  0  0  0  0
   -1.2097    0.5207    3.1715 H   0  0  0  0  0  0  0  0  0  0  0  0
   -2.3307    1.7062    3.8158 H   0  0  0  0  0  0  0  0  0  0  0  0
    4.0947    0.2060   -1.2474 O   0  0  0  0  0  0  0  0  0  0  0  0
    4.7145    0.6270   -0.6003 H   0  0  0  0  0  0  0  0  0  0  0  0
  1  2  1  0
  2  3  1  0
  4  3  1  1
  4  5  1  0
  4  6  2  0
  7  8  1  0
  8  9  1  0
  9 10  1  0
 10 11  1  0
 11 12  1  0
 11 13  1  0
 10 14  1  0
 14 15  1  0
 14 16  1  0
  1 17  1  0
  1 18  1  0
  1 19  1  0
  2 20  1  0
  2 21  1  0
  5 22  1  0
  5 23  1  0
  5 24  1  0
  8 25  1  0
  8 26  1  0
  9 27  1  0
  9 28  1  0
 10 29  1  0
 11 30  1  0
 12 31  1  0
 12 32  1  0
 12 33  1  0
 13 34  1  0
 13 35  1  0
 13 36  1  0
 14 37  1  0
 15 38  1  0
 15 39  1  0
 15 40  1  0
 16 41  1  0
 16 42  1  0
 16 43  1  0
 44 45  1  0
  4 44  1  0
  4  7  1  0
M  CHG  1  10   1
M  END
$$$$
