VX
     RDKit          3D

 45 44  0  0  0  0  0  0  0  0999 V2000
    3.2648    0.2530    3.3376 C   0  0  0  0  0  0  0  0  0  0  0  0
    3.5521   -0.5737    2.1014 C   0  0  0  0  0  0  0  0  0  0  0  0
    2.9811    0.0787    0.9786 O   0  0  0  0  0  0  0  0  0  0  0  0
    2.6953   -0.7423   -0.3800 P   0  0  0  0  0  0  0  0  0  0  0  0
    3.5462   -2.2762   -0.6875 C   0  0  0  0  0  0  0  0  0  0  0  0
    1.7116   -0.2136   -1.3863 O   0  0  0  0  0  0  0  0  0  0  0  0
    0.9586   -1.9217    0.6981 S   0  0  0  0  0  0  0  0  0  0  0  0
   -0.0634   -0.5955    1.4198 C   0  0  0  0  0  0  0  0  0  0  0  0
   -0.8449    0.2433    0.3895 C   0  0  0  0  0  0  0  0  0  0  0  0
   -1.4449   -0.6013   -0.7559 N   0  0  0  0  0  0  0  0  0  0  0  0
   -2.8722   -1.1191   -0.4844 C   0  0  0  0  0  0  0  0  0  0  0  0
   -2.9870   -1.7697    0.8949 C   0  0  0  0  0  0  0  0  0  0  0  0
   -3.2880   -2.1530   -1.5296 C   0  0  0  0  0  0  0  0  0  0  0  0
   -1.2180    0.1290   -2.1085 C   0  0  0  0  0  0  0  0  0  0  0  0
   -0.9083   -0.8610   -3.2284 C   0  0  0  0  0  0  0  0  0  0  0  0
   -2.3501    1.0942   -2.4388 C   0  0  0  0  0  0  0  0  0  0  0  0
    2.1852    0.3618    3.4853 H   0  0  0  0  0  0  0  0  0  0  0  0
    3.6749    1.2627    3.2309 H   0  0  0  0  0  0  0  0  0  0  0  0
    3.6978   -0.2119    4.2276 H   0  0  0  0  0  0  0  0  0  0  0  0
    4.6321   -0.6597    1.9496 H   0  0  0  0  0  0  0  0  0  0  0  0
    3.1292   -1.5761    2.2148 H   0  0  0  0  0  0  0  0  0  0  0  0
    3.7298   -2.8259    0.2397 H   0  0  0  0  0  0  0  0  0  0  0  0
    2.9499   -2.9157   -1.3448 H   0  0  0  0  0  0  0  0  0  0  0  0
    4.5074   -2.0896   -1.1743 H   0  0  0  0  0  0  0  0  0  0  0  0
   -0.7398   -1.0634    2.1376 H   0  0  0  0  0  0  0  0  0  0  0  0
    0.5835    0.0660    2.0057 H   0  0  0  0  0  0  0  0  0  0  0  0
   -1.6623    0.8064    0.8526 H   0  0  0  0  0  0  0  0  0  0  0  0
   -0.1577    0.9785   -0.0400 H   0  0  0  0  0  0  0  0  0  0  0  0
   -0.8280   -1.4278   -0.7982 H   0  0  0  0  0  0  0  0  0  0  0  0
   -3.5407   -0.2525   -0.5135 H   0  0  0  0  0  0  0  0  0  0  0  0
   -3.9809   -2.2125    1.0298 H   0  0  0  0  0  0  0  0  0  0  0  0
   -2.8783   -1.0357    1.6978 H   0  0  0  0  0  0  0  0  0  0  0  0
   -2.2526   -2.5698    1.0292 H   0  0  0  0  0  0  0  0  0  0  0  0
   -2.5115   -2.9096   -1.6827 H   0  0  0  0  0  0  0  0  0  0  0  0
   -4.2020   -2.6745   -1.2222 H   0  0  0  0  0  0  0  0  0  0  0  0
   -3.5268   -1.6860   -2.4869 H   0  0  0  0  0  0  0  0  0  0  0  0
   -0.3145    0.7315   -1.9895 H   0  0  0  0  0  0  0  0  0  0  0  0
   -0.4746   -0.3263   -4.0814 H   0  0  0  0  0  0  0  0  0  0  0  0
   -0.1787   -1.6129   -2.9109 H   0  0  0  0  0  0  0  0  0  0  0  0
   -1.7918   -1.3757   -3.6073 H   0  0  0  0  0  0  0  0  0  0  0  0
   -2.5466    1.7748   -1.6040 H   0  0  0  0  0  0  0  0  0  0  0  0
   -3.2803    0.5798   -2.6940 H   0  0  0  0  0  0  0  0  0  0  0  0
   -2.0774    1.7076   -3.3050 H   0  0  0  0  0  0  0  0  0  0  0  0
    4.0935    0.2072   -1.2480 O   0  0  0  0  0  0  0  0  0  0  0  0
    4.7133    0.6282   -0.6009 H   0  0  0  0  0  0  0  0  0  0  0  0
  1  2  1  0
  2  3  1  0
  4  3  1  1
  4  5  1  0
  4  6  2  0
  7  8  1  0
  8  9  1  0
  9 10  1  0
 10 11  1  0
 11 12  1  0
 11 13  1  0
 10 14  1  0
 14 15  1  0
 14 16  1  0
  1 17  1  0
  1 18  1  0
  1 19  1  0
  2 20  1  0
  2 21  1  0
  5 22  1  0
  5 23  1  0
  5 24  1  0
  8 25  1  0
  8 26  1  0
  9 27  1  0
  9 28  1  0
 10 29  1  0
 11 30  1  0
 12 31  1  0
 12 32  1  0
 12 33  1  0
 13 34  1  0
 13 35  1  0
 13 36  1  0
 14 37  1  0
 15 38  1  0
 15 39  1  0
 15 40  1  0
 16 41  1  0
 16 42  1  0
 16 43  1  0
 44 45  1  0
  4 44  1  0
  4  7  1  0
M  CHG  1  10   1
M  END
$$$$
