CVX
     RDKit          3D

 45 44  0  0  0  0  0  0  0  0999 V2000
   -0.7241    1.8968   -0.3505 O   0  0  0  0  0  0  0  0  0  0  0  0
    0.7596    1.8864   -0.0873 P   0  0  0  0  0  0  0  0  0  0  0  0
    1.4293    0.6068    0.6357 O   0  0  0  0  0  0  0  0  0  0  0  0
    2.8202    0.3537    0.4930 C   0  0  0  0  0  0  0  0  0  0  0  0
    3.0724   -1.1167    0.8026 C   0  0  0  0  0  0  0  0  0  0  0  0
    4.5242   -1.5454    0.5980 C   0  0  0  0  0  0  0  0  0  0  0  0
    5.4951   -0.8692    1.5533 C   0  0  0  0  0  0  0  0  0  0  0  0
    1.1264    0.8880   -2.1940 S   0  0  0  0  0  0  0  0  0  0  0  0
   -0.5351    0.3197   -2.6621 C   0  0  0  0  0  0  0  0  0  0  0  0
   -1.0675   -0.7375   -1.6834 C   0  0  0  0  0  0  0  0  0  0  0  0
   -2.5884   -0.8803   -1.7858 N   0  0  0  0  0  0  0  0  0  0  0  0
   -3.3008    0.2393   -1.0309 C   0  0  0  0  0  0  0  0  0  0  0  0
   -4.7970    0.2082   -1.2847 C   0  0  0  0  0  0  0  0  0  0  0  0
   -3.0503   -2.2842   -1.4392 C   0  0  0  0  0  0  0  0  0  0  0  0
   -2.8291   -2.6362    0.0203 C   0  0  0  0  0  0  0  0  0  0  0  0
    1.7598    3.2777   -0.5725 C   0  0  0  0  0  0  0  0  0  0  0  0
    3.3575    0.9985    1.1944 H   0  0  0  0  0  0  0  0  0  0  0  0
    3.1450    0.5902   -0.5247 H   0  0  0  0  0  0  0  0  0  0  0  0
    2.7546   -1.3344    1.8300 H   0  0  0  0  0  0  0  0  0  0  0  0
    2.4264   -1.7291    0.1605 H   0  0  0  0  0  0  0  0  0  0  0  0
    4.8301   -1.3445   -0.4354 H   0  0  0  0  0  0  0  0  0  0  0  0
    4.5905   -2.6303    0.7428 H   0  0  0  0  0  0  0  0  0  0  0  0
    6.5003   -1.2824    1.4220 H   0  0  0  0  0  0  0  0  0  0  0  0
    5.5534    0.2077    1.3702 H   0  0  0  0  0  0  0  0  0  0  0  0
    5.1969   -1.0283    2.5945 H   0  0  0  0  0  0  0  0  0  0  0  0
   -1.1818    1.1987   -2.7185 H   0  0  0  0  0  0  0  0  0  0  0  0
   -0.4855   -0.1044   -3.6705 H   0  0  0  0  0  0  0  0  0  0  0  0
   -0.6324   -1.7097   -1.9428 H   0  0  0  0  0  0  0  0  0  0  0  0
   -0.8437   -0.5337   -0.6329 H   0  0  0  0  0  0  0  0  0  0  0  0
   -2.8313   -0.7547   -2.7769 H   0  0  0  0  0  0  0  0  0  0  0  0
   -2.9031    1.1845   -1.4074 H   0  0  0  0  0  0  0  0  0  0  0  0
   -3.0613    0.1476    0.0324 H   0  0  0  0  0  0  0  0  0  0  0  0
   -5.2712   -0.6571   -0.8126 H   0  0  0  0  0  0  0  0  0  0  0  0
   -5.2638    1.1034   -0.8609 H   0  0  0  0  0  0  0  0  0  0  0  0
   -5.0196    0.1871   -2.3563 H   0  0  0  0  0  0  0  0  0  0  0  0
   -2.4969   -2.9679   -2.0926 H   0  0  0  0  0  0  0  0  0  0  0  0
   -4.1067   -2.3609   -1.7129 H   0  0  0  0  0  0  0  0  0  0  0  0
   -1.7775   -2.5478    0.3078 H   0  0  0  0  0  0  0  0  0  0  0  0
   -3.1324   -3.6733    0.1980 H   0  0  0  0  0  0  0  0  0  0  0  0
   -3.4251   -2.0058    0.6862 H   0  0  0  0  0  0  0  0  0  0  0  0
    1.2905    3.8099   -1.4050 H   0  0  0  0  0  0  0  0  0  0  0  0
    2.7563    2.9630   -0.8939 H   0  0  0  0  0  0  0  0  0  0  0  0
    1.8710    3.9779    0.2601 H   0  0  0  0  0  0  0  0  0  0  0  0
    0.4643    2.6902    1.6088 O   0  0  0  0  0  0  0  0  0  0  0  0
    0.6892    2.0780    2.3535 H   0  0  0  0  0  0  0  0  0  0  0  0
  1  2  2  0
  2  3  1  1
  3  4  1  0
  4  5  1  0
  5  6  1  0
  6  7  1  0
  8  9  1  0
  9 10  1  0
 10 11  1  0
 11 12  1  0
 12 13  1  0
 11 14  1  0
 14 15  1  0
  2 16  1  0
  4 17  1  0
  4 18  1  0
  5 19  1  0
  5 20  1  0
  6 21  1  0
  6 22  1  0
  7 23  1  0
  7 24  1  0
  7 25  1  0
  9 26  1  0
  9 27  1  0
 10 28  1  0
 10 29  1  0
 11 30  1  0
 12 31  1  0
 12 32  1  0
 13 33  1  0
 13 34  1  0
 13 35  1  0
 14 36  1  0
 14 37  1  0
 15 38  1  0
 15 39  1  0
 15 40  1  0
 16 41  1  0
 16 42  1  0
 16 43  1  0
 44 45  1  0
  2 44  1  0
  2  8  1  0
M  CHG  1  11   1
M  END
$$$$
