VX
     RDKit          3D

 45 44  0  0  0  0  0  0  0  0999 V2000
    4.3900    1.5195    2.2624 C   0  0  0  0  0  0  0  0  0  0  0  0
    3.7868    1.2486    0.8998 C   0  0  0  0  0  0  0  0  0  0  0  0
    2.9829    0.0789    0.9816 O   0  0  0  0  0  0  0  0  0  0  0  0
    2.6939   -0.7418   -0.3818 P   0  0  0  0  0  0  0  0  0  0  0  0
    3.5454   -2.2750   -0.6874 C   0  0  0  0  0  0  0  0  0  0  0  0
    1.7120   -0.2153   -1.3876 O   0  0  0  0  0  0  0  0  0  0  0  0
    0.9572   -1.9213    0.6963 S   0  0  0  0  0  0  0  0  0  0  0  0
   -0.4911   -1.7421   -0.3996 C   0  0  0  0  0  0  0  0  0  0  0  0
   -1.0313   -0.3050   -0.4697 C   0  0  0  0  0  0  0  0  0  0  0  0
   -1.0054    0.3911    0.9021 N   0  0  0  0  0  0  0  0  0  0  0  0
   -0.3771    1.7920    0.8167 C   0  0  0  0  0  0  0  0  0  0  0  0
   -1.3506    2.8141    0.2508 C   0  0  0  0  0  0  0  0  0  0  0  0
    0.1854    2.2075    2.1754 C   0  0  0  0  0  0  0  0  0  0  0  0
   -2.2539    0.2614    1.7816 C   0  0  0  0  0  0  0  0  0  0  0  0
   -2.2071   -1.0519    2.5619 C   0  0  0  0  0  0  0  0  0  0  0  0
   -3.5621    0.3794    1.0035 C   0  0  0  0  0  0  0  0  0  0  0  0
    3.6074    1.5998    3.0260 H   0  0  0  0  0  0  0  0  0  0  0  0
    4.9762    2.4429    2.2532 H   0  0  0  0  0  0  0  0  0  0  0  0
    5.0471    0.6936    2.5568 H   0  0  0  0  0  0  0  0  0  0  0  0
    4.5785    1.1218    0.1562 H   0  0  0  0  0  0  0  0  0  0  0  0
    3.1483    2.0836    0.5968 H   0  0  0  0  0  0  0  0  0  0  0  0
    4.5018   -2.0998   -1.1836 H   0  0  0  0  0  0  0  0  0  0  0  0
    2.9445   -2.9271   -1.3254 H   0  0  0  0  0  0  0  0  0  0  0  0
    3.7409   -2.8018    0.2504 H   0  0  0  0  0  0  0  0  0  0  0  0
   -1.2707   -2.4103   -0.0249 H   0  0  0  0  0  0  0  0  0  0  0  0
   -0.2287   -2.0924   -1.4028 H   0  0  0  0  0  0  0  0  0  0  0  0
   -0.4249    0.2891   -1.1575 H   0  0  0  0  0  0  0  0  0  0  0  0
   -2.0455   -0.2782   -0.8700 H   0  0  0  0  0  0  0  0  0  0  0  0
   -0.2766   -0.1389    1.4058 H   0  0  0  0  0  0  0  0  0  0  0  0
    0.4762    1.6964    0.1372 H   0  0  0  0  0  0  0  0  0  0  0  0
   -2.1714    3.0271    0.9428 H   0  0  0  0  0  0  0  0  0  0  0  0
   -1.7746    2.4797   -0.7012 H   0  0  0  0  0  0  0  0  0  0  0  0
   -0.8357    3.7614    0.0608 H   0  0  0  0  0  0  0  0  0  0  0  0
   -0.6011    2.4364    2.9002 H   0  0  0  0  0  0  0  0  0  0  0  0
    0.8256    1.4254    2.5959 H   0  0  0  0  0  0  0  0  0  0  0  0
    0.7964    3.1112    2.0668 H   0  0  0  0  0  0  0  0  0  0  0  0
   -2.2089    1.0756    2.5103 H   0  0  0  0  0  0  0  0  0  0  0  0
   -3.0282   -1.0893    3.2872 H   0  0  0  0  0  0  0  0  0  0  0  0
   -1.2738   -1.1542    3.1271 H   0  0  0  0  0  0  0  0  0  0  0  0
   -2.3164   -1.9216    1.9089 H   0  0  0  0  0  0  0  0  0  0  0  0
   -3.5711    1.2248    0.3128 H   0  0  0  0  0  0  0  0  0  0  0  0
   -4.3933    0.5230    1.7041 H   0  0  0  0  0  0  0  0  0  0  0  0
   -3.7861   -0.5305    0.4389 H   0  0  0  0  0  0  0  0  0  0  0  0
    4.0921    0.2078   -1.2498 O   0  0  0  0  0  0  0  0  0  0  0  0
    4.7119    0.6287   -0.6026 H   0  0  0  0  0  0  0  0  0  0  0  0
  1  2  1  0
  2  3  1  0
  4  3  1  1
  4  5  1  0
  4  6  2  0
  7  8  1  0
  8  9  1  0
  9 10  1  0
 10 11  1  0
 11 12  1  0
 11 13  1  0
 10 14  1  0
 14 15  1  0
 14 16  1  0
  1 17  1  0
  1 18  1  0
  1 19  1  0
  2 20  1  0
  2 21  1  0
  5 22  1  0
  5 23  1  0
  5 24  1  0
  8 25  1  0
  8 26  1  0
  9 27  1  0
  9 28  1  0
 10 29  1  0
 11 30  1  0
 12 31  1  0
 12 32  1  0
 12 33  1  0
 13 34  1  0
 13 35  1  0
 13 36  1  0
 14 37  1  0
 15 38  1  0
 15 39  1  0
 15 40  1  0
 16 41  1  0
 16 42  1  0
 16 43  1  0
 44 45  1  0
  4 44  1  0
  4  7  1  0
M  CHG  1  10   1
M  END
$$$$
