VX
     RDKit          3D

 45 44  0  0  0  0  0  0  0  0999 V2000
    3.3735    0.3289    3.3161 C   0  0  0  0  0  0  0  0  0  0  0  0
    3.5479   -0.5620    2.1048 C   0  0  0  0  0  0  0  0  0  0  0  0
    2.9767    0.0856    0.9789 O   0  0  0  0  0  0  0  0  0  0  0  0
    2.6980   -0.7456   -0.3793 P   0  0  0  0  0  0  0  0  0  0  0  0
    3.5461   -2.2806   -0.6924 C   0  0  0  0  0  0  0  0  0  0  0  0
    1.7134   -0.2127   -1.3825 O   0  0  0  0  0  0  0  0  0  0  0  0
    0.9613   -1.9251    0.6988 S   0  0  0  0  0  0  0  0  0  0  0  0
   -0.5493   -1.0429    0.1878 C   0  0  0  0  0  0  0  0  0  0  0  0
   -0.5136    0.4307    0.6044 C   0  0  0  0  0  0  0  0  0  0  0  0
   -1.7743    1.2348    0.2693 N   0  0  0  0  0  0  0  0  0  0  0  0
   -1.8289    1.9214   -1.1044 C   0  0  0  0  0  0  0  0  0  0  0  0
   -0.9264    3.1573   -1.0861 C   0  0  0  0  0  0  0  0  0  0  0  0
   -1.4736    1.0020   -2.2626 C   0  0  0  0  0  0  0  0  0  0  0  0
   -3.0822    0.6494    0.8147 C   0  0  0  0  0  0  0  0  0  0  0  0
   -3.9630    1.7881    1.3345 C   0  0  0  0  0  0  0  0  0  0  0  0
   -3.8279   -0.2009   -0.2062 C   0  0  0  0  0  0  0  0  0  0  0  0
    3.8555    1.2987    3.1516 H   0  0  0  0  0  0  0  0  0  0  0  0
    3.8085   -0.1345    4.2063 H   0  0  0  0  0  0  0  0  0  0  0  0
    2.3121    0.5270    3.5028 H   0  0  0  0  0  0  0  0  0  0  0  0
    3.0609   -1.5261    2.2736 H   0  0  0  0  0  0  0  0  0  0  0  0
    4.6126   -0.7293    1.9170 H   0  0  0  0  0  0  0  0  0  0  0  0
    4.5136   -2.0939   -1.1662 H   0  0  0  0  0  0  0  0  0  0  0  0
    3.7161   -2.8403    0.2311 H   0  0  0  0  0  0  0  0  0  0  0  0
    2.9566   -2.9131   -1.3616 H   0  0  0  0  0  0  0  0  0  0  0  0
   -1.3813   -1.5622    0.6691 H   0  0  0  0  0  0  0  0  0  0  0  0
   -0.6587   -1.1642   -0.8911 H   0  0  0  0  0  0  0  0  0  0  0  0
   -0.4157    0.5024    1.6952 H   0  0  0  0  0  0  0  0  0  0  0  0
    0.3258    0.9773    0.1725 H   0  0  0  0  0  0  0  0  0  0  0  0
   -1.6355    2.0404    0.8915 H   0  0  0  0  0  0  0  0  0  0  0  0
   -2.8578    2.2727   -1.2318 H   0  0  0  0  0  0  0  0  0  0  0  0
    0.1294    2.8963   -0.9686 H   0  0  0  0  0  0  0  0  0  0  0  0
   -1.0265    3.7136   -2.0248 H   0  0  0  0  0  0  0  0  0  0  0  0
   -1.2018    3.8366   -0.2717 H   0  0  0  0  0  0  0  0  0  0  0  0
   -0.4187    0.7184   -2.2511 H   0  0  0  0  0  0  0  0  0  0  0  0
   -1.6499    1.5184   -3.2129 H   0  0  0  0  0  0  0  0  0  0  0  0
   -2.0786    0.0940   -2.2786 H   0  0  0  0  0  0  0  0  0  0  0  0
   -2.8039    0.0296    1.6745 H   0  0  0  0  0  0  0  0  0  0  0  0
   -4.8739    1.3874    1.7926 H   0  0  0  0  0  0  0  0  0  0  0  0
   -3.4405    2.3707    2.1006 H   0  0  0  0  0  0  0  0  0  0  0  0
   -4.2670    2.4709    0.5353 H   0  0  0  0  0  0  0  0  0  0  0  0
   -4.2049    0.3951   -1.0426 H   0  0  0  0  0  0  0  0  0  0  0  0
   -3.2089   -1.0058   -0.6065 H   0  0  0  0  0  0  0  0  0  0  0  0
   -4.6978   -0.6718    0.2659 H   0  0  0  0  0  0  0  0  0  0  0  0
    4.0962    0.2040   -1.2473 O   0  0  0  0  0  0  0  0  0  0  0  0
    4.7160    0.6249   -0.6001 H   0  0  0  0  0  0  0  0  0  0  0  0
  1  2  1  0
  2  3  1  0
  4  3  1  1
  4  5  1  0
  4  6  2  0
  7  8  1  0
  8  9  1  0
  9 10  1  0
 10 11  1  0
 11 12  1  0
 11 13  1  0
 10 14  1  0
 14 15  1  0
 14 16  1  0
  1 17  1  0
  1 18  1  0
  1 19  1  0
  2 20  1  0
  2 21  1  0
  5 22  1  0
  5 23  1  0
  5 24  1  0
  8 25  1  0
  8 26  1  0
  9 27  1  0
  9 28  1  0
 10 29  1  0
 11 30  1  0
 12 31  1  0
 12 32  1  0
 12 33  1  0
 13 34  1  0
 13 35  1  0
 13 36  1  0
 14 37  1  0
 15 38  1  0
 15 39  1  0
 15 40  1  0
 16 41  1  0
 16 42  1  0
 16 43  1  0
 44 45  1  0
  4 44  1  0
  4  7  1  0
M  CHG  1  10   1
M  END
$$$$
