VX
     RDKit          3D

 45 44  0  0  0  0  0  0  0  0999 V2000
    2.4193   -1.0789   -1.9451 C   0  0  0  0  0  0  0  0  0  0  0  0
    3.5346   -0.5430   -1.0708 C   0  0  0  0  0  0  0  0  0  0  0  0
    3.0005   -0.1970    0.1987 O   0  0  0  0  0  0  0  0  0  0  0  0
    2.8367    1.3647    0.5734 P   0  0  0  0  0  0  0  0  0  0  0  0
    4.0402    2.1288    1.6413 C   0  0  0  0  0  0  0  0  0  0  0  0
    1.6876    2.1737    0.0343 O   0  0  0  0  0  0  0  0  0  0  0  0
    1.5398    0.7770    2.4555 S   0  0  0  0  0  0  0  0  0  0  0  0
   -0.0696    0.4120    1.6978 C   0  0  0  0  0  0  0  0  0  0  0  0
   -0.8737    1.7004    1.5023 C   0  0  0  0  0  0  0  0  0  0  0  0
   -2.1552    1.5019    0.6718 N   0  0  0  0  0  0  0  0  0  0  0  0
   -3.2232    0.5900    1.3009 C   0  0  0  0  0  0  0  0  0  0  0  0
   -3.3890    0.8914    2.7955 C   0  0  0  0  0  0  0  0  0  0  0  0
   -4.5788    0.8199    0.6286 C   0  0  0  0  0  0  0  0  0  0  0  0
   -1.7963    1.2973   -0.8217 C   0  0  0  0  0  0  0  0  0  0  0  0
   -2.6069    2.2637   -1.6837 C   0  0  0  0  0  0  0  0  0  0  0  0
   -1.9203   -0.1496   -1.2882 C   0  0  0  0  0  0  0  0  0  0  0  0
    1.6406   -0.3227   -2.0879 H   0  0  0  0  0  0  0  0  0  0  0  0
    1.9394   -1.9429   -1.4728 H   0  0  0  0  0  0  0  0  0  0  0  0
    2.8019   -1.3795   -2.9247 H   0  0  0  0  0  0  0  0  0  0  0  0
    4.2991   -1.3103   -0.9182 H   0  0  0  0  0  0  0  0  0  0  0  0
    4.0125    0.3197   -1.5459 H   0  0  0  0  0  0  0  0  0  0  0  0
    4.4354    1.4042    2.3594 H   0  0  0  0  0  0  0  0  0  0  0  0
    3.5867    2.9524    2.2004 H   0  0  0  0  0  0  0  0  0  0  0  0
    4.8780    2.5307    1.0655 H   0  0  0  0  0  0  0  0  0  0  0  0
    0.1250   -0.0956    0.7520 H   0  0  0  0  0  0  0  0  0  0  0  0
   -0.6035   -0.2869    2.3468 H   0  0  0  0  0  0  0  0  0  0  0  0
   -0.3110    2.4859    0.9898 H   0  0  0  0  0  0  0  0  0  0  0  0
   -1.1764    2.1337    2.4614 H   0  0  0  0  0  0  0  0  0  0  0  0
   -2.5765    2.4396    0.7080 H   0  0  0  0  0  0  0  0  0  0  0  0
   -2.8913   -0.4448    1.1735 H   0  0  0  0  0  0  0  0  0  0  0  0
   -2.5074    0.6017    3.3743 H   0  0  0  0  0  0  0  0  0  0  0  0
   -4.2280    0.3222    3.2119 H   0  0  0  0  0  0  0  0  0  0  0  0
   -3.5877    1.9543    2.9717 H   0  0  0  0  0  0  0  0  0  0  0  0
   -4.5951    0.4878   -0.4104 H   0  0  0  0  0  0  0  0  0  0  0  0
   -4.8643    1.8776    0.6548 H   0  0  0  0  0  0  0  0  0  0  0  0
   -5.3632    0.2516    1.1417 H   0  0  0  0  0  0  0  0  0  0  0  0
   -0.7461    1.5910   -0.9291 H   0  0  0  0  0  0  0  0  0  0  0  0
   -2.2796    2.2058   -2.7280 H   0  0  0  0  0  0  0  0  0  0  0  0
   -3.6773    2.0485   -1.6658 H   0  0  0  0  0  0  0  0  0  0  0  0
   -2.4630    3.2980   -1.3525 H   0  0  0  0  0  0  0  0  0  0  0  0
   -1.3916   -0.8444   -0.6314 H   0  0  0  0  0  0  0  0  0  0  0  0
   -2.9576   -0.4823   -1.3683 H   0  0  0  0  0  0  0  0  0  0  0  0
   -1.4809   -0.2531   -2.2876 H   0  0  0  0  0  0  0  0  0  0  0  0
    3.8808    1.8378   -0.9418 O   0  0  0  0  0  0  0  0  0  0  0  0
    4.7514    2.2323   -0.6838 H   0  0  0  0  0  0  0  0  0  0  0  0
  1  2  1  0
  2  3  1  0
  4  3  1  1
  4  5  1  0
  4  6  2  0
  7  8  1  0
  8  9  1  0
  9 10  1  0
 10 11  1  0
 11 12  1  0
 11 13  1  0
 10 14  1  0
 14 15  1  0
 14 16  1  0
  1 17  1  0
  1 18  1  0
  1 19  1  0
  2 20  1  0
  2 21  1  0
  5 22  1  0
  5 23  1  0
  5 24  1  0
  8 25  1  0
  8 26  1  0
  9 27  1  0
  9 28  1  0
 10 29  1  0
 11 30  1  0
 12 31  1  0
 12 32  1  0
 12 33  1  0
 13 34  1  0
 13 35  1  0
 13 36  1  0
 14 37  1  0
 15 38  1  0
 15 39  1  0
 15 40  1  0
 16 41  1  0
 16 42  1  0
 16 43  1  0
 44 45  1  0
  4 44  1  0
  4  7  1  0
M  CHG  1  10   1
M  END
$$$$
