VX
     RDKit          3D

 45 44  0  0  0  0  0  0  0  0999 V2000
    3.3486   -2.4895    0.7375 C   0  0  0  0  0  0  0  0  0  0  0  0
    3.7651   -1.0599    1.0153 C   0  0  0  0  0  0  0  0  0  0  0  0
    2.9948   -0.1972    0.1947 O   0  0  0  0  0  0  0  0  0  0  0  0
    2.8396    1.3643    0.5754 P   0  0  0  0  0  0  0  0  0  0  0  0
    4.0411    2.1338    1.6436 C   0  0  0  0  0  0  0  0  0  0  0  0
    1.6894    2.1692    0.0341 O   0  0  0  0  0  0  0  0  0  0  0  0
    1.5427    0.7766    2.4575 S   0  0  0  0  0  0  0  0  0  0  0  0
    0.0094    1.7375    2.2237 C   0  0  0  0  0  0  0  0  0  0  0  0
   -0.8216    1.3091    1.0034 C   0  0  0  0  0  0  0  0  0  0  0  0
   -1.9005    0.2440    1.2488 N   0  0  0  0  0  0  0  0  0  0  0  0
   -3.2820    0.7275    1.7088 C   0  0  0  0  0  0  0  0  0  0  0  0
   -4.0308    1.3203    0.5121 C   0  0  0  0  0  0  0  0  0  0  0  0
   -3.2199    1.7215    2.8603 C   0  0  0  0  0  0  0  0  0  0  0  0
   -1.4018   -1.0911    1.8138 C   0  0  0  0  0  0  0  0  0  0  0  0
   -1.5302   -1.1853    3.3288 C   0  0  0  0  0  0  0  0  0  0  0  0
   -2.1553   -2.2366    1.1303 C   0  0  0  0  0  0  0  0  0  0  0  0
    3.9282   -3.1901    1.3450 H   0  0  0  0  0  0  0  0  0  0  0  0
    3.4929   -2.7353   -0.3198 H   0  0  0  0  0  0  0  0  0  0  0  0
    2.2845   -2.6294    0.9547 H   0  0  0  0  0  0  0  0  0  0  0  0
    4.8240   -0.9242    0.7756 H   0  0  0  0  0  0  0  0  0  0  0  0
    3.6086   -0.8236    2.0718 H   0  0  0  0  0  0  0  0  0  0  0  0
    4.4093    1.4367    2.4012 H   0  0  0  0  0  0  0  0  0  0  0  0
    4.8942    2.4942    1.0620 H   0  0  0  0  0  0  0  0  0  0  0  0
    3.5954    2.9882    2.1608 H   0  0  0  0  0  0  0  0  0  0  0  0
    0.3190    2.7796    2.0890 H   0  0  0  0  0  0  0  0  0  0  0  0
   -0.5604    1.7036    3.1520 H   0  0  0  0  0  0  0  0  0  0  0  0
   -0.2056    0.9024    0.1958 H   0  0  0  0  0  0  0  0  0  0  0  0
   -1.3452    2.1795    0.5961 H   0  0  0  0  0  0  0  0  0  0  0  0
   -2.0884   -0.0204    0.2729 H   0  0  0  0  0  0  0  0  0  0  0  0
   -3.8352   -0.1599    2.0312 H   0  0  0  0  0  0  0  0  0  0  0  0
   -5.0523    1.5926    0.8000 H   0  0  0  0  0  0  0  0  0  0  0  0
   -3.5455    2.2224    0.1274 H   0  0  0  0  0  0  0  0  0  0  0  0
   -4.1039    0.5960   -0.3064 H   0  0  0  0  0  0  0  0  0  0  0  0
   -2.7225    2.6537    2.5752 H   0  0  0  0  0  0  0  0  0  0  0  0
   -2.7140    1.3062    3.7348 H   0  0  0  0  0  0  0  0  0  0  0  0
   -4.2344    1.9872    3.1792 H   0  0  0  0  0  0  0  0  0  0  0  0
   -0.3526   -1.1792    1.5170 H   0  0  0  0  0  0  0  0  0  0  0  0
   -1.0773   -2.1186    3.6828 H   0  0  0  0  0  0  0  0  0  0  0  0
   -2.5748   -1.1963    3.6552 H   0  0  0  0  0  0  0  0  0  0  0  0
   -1.0207   -0.3700    3.8443 H   0  0  0  0  0  0  0  0  0  0  0  0
   -1.7586   -3.2028    1.4612 H   0  0  0  0  0  0  0  0  0  0  0  0
   -3.2252   -2.2230    1.3597 H   0  0  0  0  0  0  0  0  0  0  0  0
   -2.0403   -2.1911    0.0420 H   0  0  0  0  0  0  0  0  0  0  0  0
    3.8837    1.8374   -0.9398 O   0  0  0  0  0  0  0  0  0  0  0  0
    4.7543    2.2319   -0.6818 H   0  0  0  0  0  0  0  0  0  0  0  0
  1  2  1  0
  2  3  1  0
  4  3  1  1
  4  5  1  0
  4  6  2  0
  7  8  1  0
  8  9  1  0
  9 10  1  0
 10 11  1  0
 11 12  1  0
 11 13  1  0
 10 14  1  0
 14 15  1  0
 14 16  1  0
  1 17  1  0
  1 18  1  0
  1 19  1  0
  2 20  1  0
  2 21  1  0
  5 22  1  0
  5 23  1  0
  5 24  1  0
  8 25  1  0
  8 26  1  0
  9 27  1  0
  9 28  1  0
 10 29  1  0
 11 30  1  0
 12 31  1  0
 12 32  1  0
 12 33  1  0
 13 34  1  0
 13 35  1  0
 13 36  1  0
 14 37  1  0
 15 38  1  0
 15 39  1  0
 15 40  1  0
 16 41  1  0
 16 42  1  0
 16 43  1  0
 44 45  1  0
  4 44  1  0
  4  7  1  0
M  CHG  1  10   1
M  END
$$$$
