VX
     RDKit          3D

 45 44  0  0  0  0  0  0  0  0999 V2000
    3.4929   -2.4914    0.6083 C   0  0  0  0  0  0  0  0  0  0  0  0
    3.7659   -1.0589    1.0229 C   0  0  0  0  0  0  0  0  0  0  0  0
    2.9994   -0.1975    0.1978 O   0  0  0  0  0  0  0  0  0  0  0  0
    2.8361    1.3646    0.5731 P   0  0  0  0  0  0  0  0  0  0  0  0
    4.0415    2.1304    1.6427 C   0  0  0  0  0  0  0  0  0  0  0  0
    1.6879    2.1726    0.0342 O   0  0  0  0  0  0  0  0  0  0  0  0
    1.5392    0.7769    2.4552 S   0  0  0  0  0  0  0  0  0  0  0  0
    0.1416   -0.1162    1.7129 C   0  0  0  0  0  0  0  0  0  0  0  0
   -1.2560    0.1637    2.2959 C   0  0  0  0  0  0  0  0  0  0  0  0
   -1.7609    1.6251    2.2599 N   0  0  0  0  0  0  0  0  0  0  0  0
   -1.3523    2.5086    3.4741 C   0  0  0  0  0  0  0  0  0  0  0  0
   -2.5262    3.4283    3.8578 C   0  0  0  0  0  0  0  0  0  0  0  0
   -1.0411    1.7022    4.7433 C   0  0  0  0  0  0  0  0  0  0  0  0
   -1.5463    2.2673    0.8561 C   0  0  0  0  0  0  0  0  0  0  0  0
   -2.0080    3.7174    0.7702 C   0  0  0  0  0  0  0  0  0  0  0  0
   -2.3148    1.4606   -0.1975 C   0  0  0  0  0  0  0  0  0  0  0  0
    3.7584   -2.6456   -0.4413 H   0  0  0  0  0  0  0  0  0  0  0  0
    4.0652   -3.1929    1.2199 H   0  0  0  0  0  0  0  0  0  0  0  0
    2.4284   -2.7238    0.7056 H   0  0  0  0  0  0  0  0  0  0  0  0
    4.8288   -0.8302    0.8942 H   0  0  0  0  0  0  0  0  0  0  0  0
    3.4949   -0.9136    2.0732 H   0  0  0  0  0  0  0  0  0  0  0  0
    3.6069    3.0026    2.1413 H   0  0  0  0  0  0  0  0  0  0  0  0
    4.9070    2.4672    1.0635 H   0  0  0  0  0  0  0  0  0  0  0  0
    4.3890    1.4397    2.4165 H   0  0  0  0  0  0  0  0  0  0  0  0
    0.3528   -1.1852    1.8305 H   0  0  0  0  0  0  0  0  0  0  0  0
    0.1442    0.0657    0.6350 H   0  0  0  0  0  0  0  0  0  0  0  0
   -1.9938   -0.4079    1.7214 H   0  0  0  0  0  0  0  0  0  0  0  0
   -1.3539   -0.2191    3.3132 H   0  0  0  0  0  0  0  0  0  0  0  0
   -2.7801    1.5342    2.3533 H   0  0  0  0  0  0  0  0  0  0  0  0
   -0.4735    3.0860    3.1716 H   0  0  0  0  0  0  0  0  0  0  0  0
   -2.2815    4.0032    4.7589 H   0  0  0  0  0  0  0  0  0  0  0  0
   -3.4304    2.8480    4.0745 H   0  0  0  0  0  0  0  0  0  0  0  0
   -2.7818    4.1647    3.0996 H   0  0  0  0  0  0  0  0  0  0  0  0
   -1.8998    1.0934    5.0531 H   0  0  0  0  0  0  0  0  0  0  0  0
   -0.8089    2.3806    5.5751 H   0  0  0  0  0  0  0  0  0  0  0  0
   -0.1731    1.0504    4.6410 H   0  0  0  0  0  0  0  0  0  0  0  0
   -0.4768    2.2421    0.6610 H   0  0  0  0  0  0  0  0  0  0  0  0
   -1.8636    4.1000   -0.2472 H   0  0  0  0  0  0  0  0  0  0  0  0
   -1.4214    4.3711    1.4213 H   0  0  0  0  0  0  0  0  0  0  0  0
   -3.0728    3.8177    0.9995 H   0  0  0  0  0  0  0  0  0  0  0  0
   -1.9239    0.4474   -0.3180 H   0  0  0  0  0  0  0  0  0  0  0  0
   -2.2398    1.9398   -1.1799 H   0  0  0  0  0  0  0  0  0  0  0  0
   -3.3773    1.3874    0.0577 H   0  0  0  0  0  0  0  0  0  0  0  0
    3.8802    1.8377   -0.9421 O   0  0  0  0  0  0  0  0  0  0  0  0
    4.7508    2.2322   -0.6841 H   0  0  0  0  0  0  0  0  0  0  0  0
  1  2  1  0
  2  3  1  0
  4  3  1  1
  4  5  1  0
  4  6  2  0
  7  8  1  0
  8  9  1  0
  9 10  1  0
 10 11  1  0
 11 12  1  0
 11 13  1  0
 10 14  1  0
 14 15  1  0
 14 16  1  0
  1 17  1  0
  1 18  1  0
  1 19  1  0
  2 20  1  0
  2 21  1  0
  5 22  1  0
  5 23  1  0
  5 24  1  0
  8 25  1  0
  8 26  1  0
  9 27  1  0
  9 28  1  0
 10 29  1  0
 11 30  1  0
 12 31  1  0
 12 32  1  0
 12 33  1  0
 13 34  1  0
 13 35  1  0
 13 36  1  0
 14 37  1  0
 15 38  1  0
 15 39  1  0
 15 40  1  0
 16 41  1  0
 16 42  1  0
 16 43  1  0
 44 45  1  0
  4 44  1  0
  4  7  1  0
M  CHG  1  10   1
M  END
$$$$
