VX
     RDKit          3D

 45 44  0  0  0  0  0  0  0  0999 V2000
    2.3890   -1.1081   -1.9192 C   0  0  0  0  0  0  0  0  0  0  0  0
    3.5138   -0.5366   -1.0810 C   0  0  0  0  0  0  0  0  0  0  0  0
    3.0066   -0.1989    0.2023 O   0  0  0  0  0  0  0  0  0  0  0  0
    2.8314    1.3664    0.5703 P   0  0  0  0  0  0  0  0  0  0  0  0
    4.0391    2.1246    1.6393 C   0  0  0  0  0  0  0  0  0  0  0  0
    1.6878    2.1780    0.0358 O   0  0  0  0  0  0  0  0  0  0  0  0
    1.5345    0.7787    2.4524 S   0  0  0  0  0  0  0  0  0  0  0  0
   -0.1268    0.6394    1.7202 C   0  0  0  0  0  0  0  0  0  0  0  0
   -1.1519   -0.0091    2.6526 C   0  0  0  0  0  0  0  0  0  0  0  0
   -1.2783   -1.5375    2.5895 N   0  0  0  0  0  0  0  0  0  0  0  0
    0.0057   -2.3315    2.8649 C   0  0  0  0  0  0  0  0  0  0  0  0
    0.7504   -2.7244    1.5950 C   0  0  0  0  0  0  0  0  0  0  0  0
   -0.3403   -3.5696    3.6990 C   0  0  0  0  0  0  0  0  0  0  0  0
   -2.2427   -2.1214    1.5452 C   0  0  0  0  0  0  0  0  0  0  0  0
   -2.0696   -1.5171    0.1583 C   0  0  0  0  0  0  0  0  0  0  0  0
   -3.6808   -1.9520    2.0424 C   0  0  0  0  0  0  0  0  0  0  0  0
    2.7515   -1.4072   -2.9066 H   0  0  0  0  0  0  0  0  0  0  0  0
    1.9446   -1.9791   -1.4265 H   0  0  0  0  0  0  0  0  0  0  0  0
    1.5883   -0.3722   -2.0452 H   0  0  0  0  0  0  0  0  0  0  0  0
    3.9573    0.3344   -1.5732 H   0  0  0  0  0  0  0  0  0  0  0  0
    4.3004   -1.2849   -0.9451 H   0  0  0  0  0  0  0  0  0  0  0  0
    4.8784    2.5206    1.0613 H   0  0  0  0  0  0  0  0  0  0  0  0
    4.4305    1.3984    2.3571 H   0  0  0  0  0  0  0  0  0  0  0  0
    3.5906    2.9516    2.1970 H   0  0  0  0  0  0  0  0  0  0  0  0
   -0.4512    1.6644    1.5115 H   0  0  0  0  0  0  0  0  0  0  0  0
   -0.0519    0.1284    0.7606 H   0  0  0  0  0  0  0  0  0  0  0  0
   -0.9539    0.2358    3.7033 H   0  0  0  0  0  0  0  0  0  0  0  0
   -2.1483    0.3830    2.4251 H   0  0  0  0  0  0  0  0  0  0  0  0
   -1.7934   -1.7000    3.4639 H   0  0  0  0  0  0  0  0  0  0  0  0
    0.6334   -1.6944    3.4935 H   0  0  0  0  0  0  0  0  0  0  0  0
    1.7073   -3.1916    1.8545 H   0  0  0  0  0  0  0  0  0  0  0  0
    0.1934   -3.4539    0.9987 H   0  0  0  0  0  0  0  0  0  0  0  0
    0.9766   -1.8683    0.9583 H   0  0  0  0  0  0  0  0  0  0  0  0
   -0.9821   -4.2693    3.1556 H   0  0  0  0  0  0  0  0  0  0  0  0
   -0.8509   -3.2902    4.6270 H   0  0  0  0  0  0  0  0  0  0  0  0
    0.5732   -4.1064    3.9772 H   0  0  0  0  0  0  0  0  0  0  0  0
   -2.0405   -3.1955    1.4952 H   0  0  0  0  0  0  0  0  0  0  0  0
   -2.7447   -2.0112   -0.5504 H   0  0  0  0  0  0  0  0  0  0  0  0
   -2.3155   -0.4510    0.1384 H   0  0  0  0  0  0  0  0  0  0  0  0
   -1.0561   -1.6513   -0.2259 H   0  0  0  0  0  0  0  0  0  0  0  0
   -4.3808   -2.4392    1.3549 H   0  0  0  0  0  0  0  0  0  0  0  0
   -3.8153   -2.4129    3.0271 H   0  0  0  0  0  0  0  0  0  0  0  0
   -3.9700   -0.8994    2.1158 H   0  0  0  0  0  0  0  0  0  0  0  0
    3.8755    1.8395   -0.9449 O   0  0  0  0  0  0  0  0  0  0  0  0
    4.7461    2.2340   -0.6869 H   0  0  0  0  0  0  0  0  0  0  0  0
  1  2  1  0
  2  3  1  0
  4  3  1  1
  4  5  1  0
  4  6  2  0
  7  8  1  0
  8  9  1  0
  9 10  1  0
 10 11  1  0
 11 12  1  0
 11 13  1  0
 10 14  1  0
 14 15  1  0
 14 16  1  0
  1 17  1  0
  1 18  1  0
  1 19  1  0
  2 20  1  0
  2 21  1  0
  5 22  1  0
  5 23  1  0
  5 24  1  0
  8 25  1  0
  8 26  1  0
  9 27  1  0
  9 28  1  0
 10 29  1  0
 11 30  1  0
 12 31  1  0
 12 32  1  0
 12 33  1  0
 13 34  1  0
 13 35  1  0
 13 36  1  0
 14 37  1  0
 15 38  1  0
 15 39  1  0
 15 40  1  0
 16 41  1  0
 16 42  1  0
 16 43  1  0
 44 45  1  0
  4 44  1  0
  4  7  1  0
M  CHG  1  10   1
M  END
$$$$
