VX
     RDKit          3D

 45 44  0  0  0  0  0  0  0  0999 V2000
    3.4659    2.4027    0.5402 C   0  0  0  0  0  0  0  0  0  0  0  0
    3.9973    1.0694    1.0243 C   0  0  0  0  0  0  0  0  0  0  0  0
    2.9865    0.0737    0.9817 O   0  0  0  0  0  0  0  0  0  0  0  0
    2.6914   -0.7384   -0.3821 P   0  0  0  0  0  0  0  0  0  0  0  0
    3.5468   -2.2735   -0.6835 C   0  0  0  0  0  0  0  0  0  0  0  0
    1.7096   -0.2151   -1.3912 O   0  0  0  0  0  0  0  0  0  0  0  0
    0.9546   -1.9179    0.6960 S   0  0  0  0  0  0  0  0  0  0  0  0
   -0.2682   -0.6214    1.0266 C   0  0  0  0  0  0  0  0  0  0  0  0
   -1.0701   -0.2710   -0.2335 C   0  0  0  0  0  0  0  0  0  0  0  0
   -2.2077    0.7249    0.0671 N   0  0  0  0  0  0  0  0  0  0  0  0
   -1.8035    2.1786    0.3823 C   0  0  0  0  0  0  0  0  0  0  0  0
   -1.7678    2.3748    1.8995 C   0  0  0  0  0  0  0  0  0  0  0  0
   -0.5030    2.6111   -0.2915 C   0  0  0  0  0  0  0  0  0  0  0  0
   -3.3468    0.5830   -0.9647 C   0  0  0  0  0  0  0  0  0  0  0  0
   -3.0003    1.2359   -2.2981 C   0  0  0  0  0  0  0  0  0  0  0  0
   -4.6543    1.1132   -0.3722 C   0  0  0  0  0  0  0  0  0  0  0  0
    3.3042    2.3847   -0.5428 H   0  0  0  0  0  0  0  0  0  0  0  0
    2.5079    2.6392    1.0127 H   0  0  0  0  0  0  0  0  0  0  0  0
    4.1805    3.2017    0.7637 H   0  0  0  0  0  0  0  0  0  0  0  0
    4.8734    0.7596    0.4493 H   0  0  0  0  0  0  0  0  0  0  0  0
    4.3116    1.1619    2.0697 H   0  0  0  0  0  0  0  0  0  0  0  0
    3.7727   -2.7778    0.2643 H   0  0  0  0  0  0  0  0  0  0  0  0
    2.9258   -2.9470   -1.2904 H   0  0  0  0  0  0  0  0  0  0  0  0
    4.4865   -2.1113   -1.2191 H   0  0  0  0  0  0  0  0  0  0  0  0
    0.2631    0.2478    1.4209 H   0  0  0  0  0  0  0  0  0  0  0  0
   -0.9435   -0.9858    1.8087 H   0  0  0  0  0  0  0  0  0  0  0  0
   -1.5539   -1.1834   -0.6066 H   0  0  0  0  0  0  0  0  0  0  0  0
   -0.4776    0.1468   -1.0432 H   0  0  0  0  0  0  0  0  0  0  0  0
   -2.6361    0.3607    0.9299 H   0  0  0  0  0  0  0  0  0  0  0  0
   -2.6011    2.8210   -0.0019 H   0  0  0  0  0  0  0  0  0  0  0  0
   -1.0118    1.7568    2.3870 H   0  0  0  0  0  0  0  0  0  0  0  0
   -2.7398    2.1347    2.3450 H   0  0  0  0  0  0  0  0  0  0  0  0
   -1.5459    3.4209    2.1405 H   0  0  0  0  0  0  0  0  0  0  0  0
    0.3709    2.0890    0.1064 H   0  0  0  0  0  0  0  0  0  0  0  0
   -0.5382    2.4554   -1.3722 H   0  0  0  0  0  0  0  0  0  0  0  0
   -0.3356    3.6814   -0.1261 H   0  0  0  0  0  0  0  0  0  0  0  0
   -3.4791   -0.4957   -1.1167 H   0  0  0  0  0  0  0  0  0  0  0  0
   -2.0686    0.8407   -2.7172 H   0  0  0  0  0  0  0  0  0  0  0  0
   -3.7930    1.0385   -3.0270 H   0  0  0  0  0  0  0  0  0  0  0  0
   -2.9082    2.3221   -2.2156 H   0  0  0  0  0  0  0  0  0  0  0  0
   -4.6628    2.2027   -0.2838 H   0  0  0  0  0  0  0  0  0  0  0  0
   -4.8408    0.6884    0.6212 H   0  0  0  0  0  0  0  0  0  0  0  0
   -5.4973    0.8355   -1.0125 H   0  0  0  0  0  0  0  0  0  0  0  0
    4.0896    0.2112   -1.2500 O   0  0  0  0  0  0  0  0  0  0  0  0
    4.7094    0.6321   -0.6029 H   0  0  0  0  0  0  0  0  0  0  0  0
  1  2  1  0
  2  3  1  0
  4  3  1  1
  4  5  1  0
  4  6  2  0
  7  8  1  0
  8  9  1  0
  9 10  1  0
 10 11  1  0
 11 12  1  0
 11 13  1  0
 10 14  1  0
 14 15  1  0
 14 16  1  0
  1 17  1  0
  1 18  1  0
  1 19  1  0
  2 20  1  0
  2 21  1  0
  5 22  1  0
  5 23  1  0
  5 24  1  0
  8 25  1  0
  8 26  1  0
  9 27  1  0
  9 28  1  0
 10 29  1  0
 11 30  1  0
 12 31  1  0
 12 32  1  0
 12 33  1  0
 13 34  1  0
 13 35  1  0
 13 36  1  0
 14 37  1  0
 15 38  1  0
 15 39  1  0
 15 40  1  0
 16 41  1  0
 16 42  1  0
 16 43  1  0
 44 45  1  0
  4 44  1  0
  4  7  1  0
M  CHG  1  10   1
M  END
$$$$
