CVX
     RDKit          3D

 45 44  0  0  0  0  0  0  0  0999 V2000
    1.3138    0.5811   -0.7014 O   0  0  0  0  0  0  0  0  0  0  0  0
    1.5313    1.7225    0.2575 P   0  0  0  0  0  0  0  0  0  0  0  0
    1.6277    1.4440    1.8438 O   0  0  0  0  0  0  0  0  0  0  0  0
    1.1206    2.3885    2.7756 C   0  0  0  0  0  0  0  0  0  0  0  0
    2.0882    2.4716    3.9493 C   0  0  0  0  0  0  0  0  0  0  0  0
    1.6047    3.3789    5.0790 C   0  0  0  0  0  0  0  0  0  0  0  0
    1.5162    4.8443    4.6818 C   0  0  0  0  0  0  0  0  0  0  0  0
   -0.8037    2.0065    0.4491 S   0  0  0  0  0  0  0  0  0  0  0  0
   -1.3835    0.2866    0.3648 C   0  0  0  0  0  0  0  0  0  0  0  0
   -1.5123   -0.1851   -1.0926 C   0  0  0  0  0  0  0  0  0  0  0  0
   -1.4894   -1.7075   -1.1925 N   0  0  0  0  0  0  0  0  0  0  0  0
   -2.3389   -2.2878   -2.3068 C   0  0  0  0  0  0  0  0  0  0  0  0
   -2.2004   -1.5723   -3.6401 C   0  0  0  0  0  0  0  0  0  0  0  0
   -0.1006   -2.3205   -1.0569 C   0  0  0  0  0  0  0  0  0  0  0  0
    0.7574   -2.1990   -2.2991 C   0  0  0  0  0  0  0  0  0  0  0  0
    1.6833    3.3878   -0.3592 C   0  0  0  0  0  0  0  0  0  0  0  0
    0.9927    3.3655    2.3033 H   0  0  0  0  0  0  0  0  0  0  0  0
    0.1388    2.0391    3.1104 H   0  0  0  0  0  0  0  0  0  0  0  0
    3.0699    2.8055    3.5899 H   0  0  0  0  0  0  0  0  0  0  0  0
    2.2505    1.4620    4.3480 H   0  0  0  0  0  0  0  0  0  0  0  0
    0.6268    3.0387    5.4388 H   0  0  0  0  0  0  0  0  0  0  0  0
    2.3015    3.2876    5.9207 H   0  0  0  0  0  0  0  0  0  0  0  0
    0.7458    5.0083    3.9226 H   0  0  0  0  0  0  0  0  0  0  0  0
    2.4724    5.2035    4.2886 H   0  0  0  0  0  0  0  0  0  0  0  0
    1.2574    5.4544    5.5531 H   0  0  0  0  0  0  0  0  0  0  0  0
   -0.6943   -0.3311    0.9464 H   0  0  0  0  0  0  0  0  0  0  0  0
   -2.3604    0.2257    0.8560 H   0  0  0  0  0  0  0  0  0  0  0  0
   -2.4886    0.1436   -1.4669 H   0  0  0  0  0  0  0  0  0  0  0  0
   -0.7394    0.1960   -1.7637 H   0  0  0  0  0  0  0  0  0  0  0  0
   -1.9695   -2.0342   -0.3442 H   0  0  0  0  0  0  0  0  0  0  0  0
   -3.3764   -2.2202   -1.9603 H   0  0  0  0  0  0  0  0  0  0  0  0
   -2.0837   -3.3493   -2.3930 H   0  0  0  0  0  0  0  0  0  0  0  0
   -1.1719   -1.5313   -4.0007 H   0  0  0  0  0  0  0  0  0  0  0  0
   -2.5837   -0.5487   -3.5956 H   0  0  0  0  0  0  0  0  0  0  0  0
   -2.7914   -2.0992   -4.3971 H   0  0  0  0  0  0  0  0  0  0  0  0
    0.3841   -1.8492   -0.1983 H   0  0  0  0  0  0  0  0  0  0  0  0
   -0.2561   -3.3760   -0.8064 H   0  0  0  0  0  0  0  0  0  0  0  0
    0.8120   -1.1747   -2.6752 H   0  0  0  0  0  0  0  0  0  0  0  0
    0.3924   -2.8502   -3.0986 H   0  0  0  0  0  0  0  0  0  0  0  0
    1.7788   -2.5229   -2.0721 H   0  0  0  0  0  0  0  0  0  0  0  0
    2.7358    3.6420   -0.5131 H   0  0  0  0  0  0  0  0  0  0  0  0
    1.2507    4.1192    0.3280 H   0  0  0  0  0  0  0  0  0  0  0  0
    1.1665    3.4832   -1.3186 H   0  0  0  0  0  0  0  0  0  0  0  0
    3.4112    1.4939    0.1032 O   0  0  0  0  0  0  0  0  0  0  0  0
    3.8521    1.4402    0.9880 H   0  0  0  0  0  0  0  0  0  0  0  0
  1  2  2  0
  2  3  1  6
  3  4  1  0
  4  5  1  0
  5  6  1  0
  6  7  1  0
  8  9  1  0
  9 10  1  0
 10 11  1  0
 11 12  1  0
 12 13  1  0
 11 14  1  0
 14 15  1  0
  2 16  1  0
  4 17  1  0
  4 18  1  0
  5 19  1  0
  5 20  1  0
  6 21  1  0
  6 22  1  0
  7 23  1  0
  7 24  1  0
  7 25  1  0
  9 26  1  0
  9 27  1  0
 10 28  1  0
 10 29  1  0
 11 30  1  0
 12 31  1  0
 12 32  1  0
 13 33  1  0
 13 34  1  0
 13 35  1  0
 14 36  1  0
 14 37  1  0
 15 38  1  0
 15 39  1  0
 15 40  1  0
 16 41  1  0
 16 42  1  0
 16 43  1  0
 44 45  1  0
  2 44  1  0
  2  8  1  0
M  CHG  1  11   1
M  END
$$$$
