VX
     RDKit          3D

 45 44  0  0  0  0  0  0  0  0999 V2000
    3.0196    2.4549    1.0978 C   0  0  0  0  0  0  0  0  0  0  0  0
    3.8497    1.1989    0.9305 C   0  0  0  0  0  0  0  0  0  0  0  0
    2.9930    0.0673    0.9853 O   0  0  0  0  0  0  0  0  0  0  0  0
    2.6876   -0.7349   -0.3843 P   0  0  0  0  0  0  0  0  0  0  0  0
    3.5467   -2.2687   -0.6784 C   0  0  0  0  0  0  0  0  0  0  0  0
    1.7069   -0.2170   -1.3977 O   0  0  0  0  0  0  0  0  0  0  0  0
    0.9509   -1.9144    0.6937 S   0  0  0  0  0  0  0  0  0  0  0  0
   -0.3739   -0.6766    0.7075 C   0  0  0  0  0  0  0  0  0  0  0  0
   -1.6459   -1.2576    1.3275 C   0  0  0  0  0  0  0  0  0  0  0  0
   -2.8541   -0.3289    1.1301 N   0  0  0  0  0  0  0  0  0  0  0  0
   -4.2163   -1.0476    1.1951 C   0  0  0  0  0  0  0  0  0  0  0  0
   -4.2708   -2.1267    2.2751 C   0  0  0  0  0  0  0  0  0  0  0  0
   -4.5281   -1.6289   -0.1846 C   0  0  0  0  0  0  0  0  0  0  0  0
   -2.7628    0.9922    1.9088 C   0  0  0  0  0  0  0  0  0  0  0  0
   -3.1235    0.8334    3.3789 C   0  0  0  0  0  0  0  0  0  0  0  0
   -3.6138    2.0582    1.2181 C   0  0  0  0  0  0  0  0  0  0  0  0
    2.4650    2.4279    2.0416 H   0  0  0  0  0  0  0  0  0  0  0  0
    3.6537    3.3458    1.0861 H   0  0  0  0  0  0  0  0  0  0  0  0
    2.2785    2.5388    0.2963 H   0  0  0  0  0  0  0  0  0  0  0  0
    4.5733    1.1130    1.7466 H   0  0  0  0  0  0  0  0  0  0  0  0
    4.4054    1.2281   -0.0121 H   0  0  0  0  0  0  0  0  0  0  0  0
    2.9403   -2.9330   -1.3007 H   0  0  0  0  0  0  0  0  0  0  0  0
    3.7590   -2.7806    0.2644 H   0  0  0  0  0  0  0  0  0  0  0  0
    4.4950   -2.0939   -1.1938 H   0  0  0  0  0  0  0  0  0  0  0  0
   -0.0135    0.1892    1.2686 H   0  0  0  0  0  0  0  0  0  0  0  0
   -0.5660   -0.3613   -0.3227 H   0  0  0  0  0  0  0  0  0  0  0  0
   -1.5368   -1.4375    2.4014 H   0  0  0  0  0  0  0  0  0  0  0  0
   -1.8961   -2.1966    0.8238 H   0  0  0  0  0  0  0  0  0  0  0  0
   -2.7760   -0.0340    0.1470 H   0  0  0  0  0  0  0  0  0  0  0  0
   -4.9700   -0.2867    1.4151 H   0  0  0  0  0  0  0  0  0  0  0  0
   -5.2960   -2.5019    2.3717 H   0  0  0  0  0  0  0  0  0  0  0  0
   -3.9708   -1.7515    3.2559 H   0  0  0  0  0  0  0  0  0  0  0  0
   -3.6410   -2.9887    2.0334 H   0  0  0  0  0  0  0  0  0  0  0  0
   -4.5380   -0.8436   -0.9481 H   0  0  0  0  0  0  0  0  0  0  0  0
   -5.5165   -2.1012   -0.1855 H   0  0  0  0  0  0  0  0  0  0  0  0
   -3.7970   -2.3858   -0.4855 H   0  0  0  0  0  0  0  0  0  0  0  0
   -1.7223    1.3202    1.8369 H   0  0  0  0  0  0  0  0  0  0  0  0
   -4.1799    0.5858    3.5204 H   0  0  0  0  0  0  0  0  0  0  0  0
   -2.5144    0.0656    3.8645 H   0  0  0  0  0  0  0  0  0  0  0  0
   -2.9423    1.7736    3.9119 H   0  0  0  0  0  0  0  0  0  0  0  0
   -3.3544    2.1445    0.1575 H   0  0  0  0  0  0  0  0  0  0  0  0
   -4.6855    1.8525    1.2923 H   0  0  0  0  0  0  0  0  0  0  0  0
   -3.4391    3.0363    1.6799 H   0  0  0  0  0  0  0  0  0  0  0  0
    4.0858    0.2147   -1.2522 O   0  0  0  0  0  0  0  0  0  0  0  0
    4.7056    0.6356   -0.6050 H   0  0  0  0  0  0  0  0  0  0  0  0
  1  2  1  0
  2  3  1  0
  4  3  1  1
  4  5  1  0
  4  6  2  0
  7  8  1  0
  8  9  1  0
  9 10  1  0
 10 11  1  0
 11 12  1  0
 11 13  1  0
 10 14  1  0
 14 15  1  0
 14 16  1  0
  1 17  1  0
  1 18  1  0
  1 19  1  0
  2 20  1  0
  2 21  1  0
  5 22  1  0
  5 23  1  0
  5 24  1  0
  8 25  1  0
  8 26  1  0
  9 27  1  0
  9 28  1  0
 10 29  1  0
 11 30  1  0
 12 31  1  0
 12 32  1  0
 12 33  1  0
 13 34  1  0
 13 35  1  0
 13 36  1  0
 14 37  1  0
 15 38  1  0
 15 39  1  0
 15 40  1  0
 16 41  1  0
 16 42  1  0
 16 43  1  0
 44 45  1  0
  4 44  1  0
  4  7  1  0
M  CHG  1  10   1
M  END
$$$$
