VX
     RDKit          3D

 45 44  0  0  0  0  0  0  0  0999 V2000
    4.8159   -1.7272    0.3888 C   0  0  0  0  0  0  0  0  0  0  0  0
    3.6167   -1.1094    1.0790 C   0  0  0  0  0  0  0  0  0  0  0  0
    2.9889   -0.1982    0.1903 O   0  0  0  0  0  0  0  0  0  0  0  0
    2.8436    1.3639    0.5780 P   0  0  0  0  0  0  0  0  0  0  0  0
    4.0422    2.1391    1.6459 C   0  0  0  0  0  0  0  0  0  0  0  0
    1.6903    2.1652    0.0335 O   0  0  0  0  0  0  0  0  0  0  0  0
    1.5467    0.7762    2.4601 S   0  0  0  0  0  0  0  0  0  0  0  0
   -0.1382    1.2368    1.9604 C   0  0  0  0  0  0  0  0  0  0  0  0
   -0.6235    0.4160    0.7563 C   0  0  0  0  0  0  0  0  0  0  0  0
   -1.9527    1.0020    0.2077 N   0  0  0  0  0  0  0  0  0  0  0  0
   -1.6020    2.0698   -0.8580 C   0  0  0  0  0  0  0  0  0  0  0  0
   -2.6277    3.2008   -0.8698 C   0  0  0  0  0  0  0  0  0  0  0  0
   -1.3395    1.4612   -2.2318 C   0  0  0  0  0  0  0  0  0  0  0  0
   -2.9765   -0.0954   -0.1444 C   0  0  0  0  0  0  0  0  0  0  0  0
   -4.2673    0.4855   -0.7208 C   0  0  0  0  0  0  0  0  0  0  0  0
   -3.3648   -0.8618    1.1321 C   0  0  0  0  0  0  0  0  0  0  0  0
    5.3077   -2.4576    1.0374 H   0  0  0  0  0  0  0  0  0  0  0  0
    4.5144   -2.2253   -0.5375 H   0  0  0  0  0  0  0  0  0  0  0  0
    5.5431   -0.9573    0.1136 H   0  0  0  0  0  0  0  0  0  0  0  0
    2.8883   -1.8859    1.3338 H   0  0  0  0  0  0  0  0  0  0  0  0
    3.9214   -0.6170    2.0076 H   0  0  0  0  0  0  0  0  0  0  0  0
    4.4160    1.4475    2.4058 H   0  0  0  0  0  0  0  0  0  0  0  0
    4.8944    2.4995    1.0591 H   0  0  0  0  0  0  0  0  0  0  0  0
    3.5961    2.9968    2.1614 H   0  0  0  0  0  0  0  0  0  0  0  0
   -0.8054    1.0694    2.8119 H   0  0  0  0  0  0  0  0  0  0  0  0
   -0.1496    2.3101    1.7457 H   0  0  0  0  0  0  0  0  0  0  0  0
    0.0843    0.3873   -0.0752 H   0  0  0  0  0  0  0  0  0  0  0  0
   -0.7873   -0.6215    1.0546 H   0  0  0  0  0  0  0  0  0  0  0  0
   -2.3819    1.5234    0.9838 H   0  0  0  0  0  0  0  0  0  0  0  0
   -0.6716    2.5310   -0.5110 H   0  0  0  0  0  0  0  0  0  0  0  0
   -3.5577    2.9367   -1.3758 H   0  0  0  0  0  0  0  0  0  0  0  0
   -2.2179    4.0633   -1.4087 H   0  0  0  0  0  0  0  0  0  0  0  0
   -2.8667    3.5344    0.1450 H   0  0  0  0  0  0  0  0  0  0  0  0
   -2.2369    1.0395   -2.6903 H   0  0  0  0  0  0  0  0  0  0  0  0
   -0.5821    0.6720   -2.1900 H   0  0  0  0  0  0  0  0  0  0  0  0
   -0.9645    2.2330   -2.9137 H   0  0  0  0  0  0  0  0  0  0  0  0
   -2.4969   -0.7672   -0.8654 H   0  0  0  0  0  0  0  0  0  0  0  0
   -4.1292    0.8962   -1.7224 H   0  0  0  0  0  0  0  0  0  0  0  0
   -4.6869    1.2621   -0.0706 H   0  0  0  0  0  0  0  0  0  0  0  0
   -5.0273   -0.2993   -0.8261 H   0  0  0  0  0  0  0  0  0  0  0  0
   -2.5429   -1.4448    1.5511 H   0  0  0  0  0  0  0  0  0  0  0  0
   -4.1637   -1.5806    0.9192 H   0  0  0  0  0  0  0  0  0  0  0  0
   -3.7285   -0.1811    1.9094 H   0  0  0  0  0  0  0  0  0  0  0  0
    3.8877    1.8370   -0.9372 O   0  0  0  0  0  0  0  0  0  0  0  0
    4.7583    2.2315   -0.6792 H   0  0  0  0  0  0  0  0  0  0  0  0
  1  2  1  0
  2  3  1  0
  4  3  1  1
  4  5  1  0
  4  6  2  0
  7  8  1  0
  8  9  1  0
  9 10  1  0
 10 11  1  0
 11 12  1  0
 11 13  1  0
 10 14  1  0
 14 15  1  0
 14 16  1  0
  1 17  1  0
  1 18  1  0
  1 19  1  0
  2 20  1  0
  2 21  1  0
  5 22  1  0
  5 23  1  0
  5 24  1  0
  8 25  1  0
  8 26  1  0
  9 27  1  0
  9 28  1  0
 10 29  1  0
 11 30  1  0
 12 31  1  0
 12 32  1  0
 12 33  1  0
 13 34  1  0
 13 35  1  0
 13 36  1  0
 14 37  1  0
 15 38  1  0
 15 39  1  0
 15 40  1  0
 16 41  1  0
 16 42  1  0
 16 43  1  0
 44 45  1  0
  4 44  1  0
  4  7  1  0
M  CHG  1  10   1
M  END
$$$$
