VX
     RDKit          3D

 45 44  0  0  0  0  0  0  0  0999 V2000
    3.5013    0.4213    3.2761 C   0  0  0  0  0  0  0  0  0  0  0  0
    3.4966   -0.5639    2.1249 C   0  0  0  0  0  0  0  0  0  0  0  0
    2.9745    0.0880    0.9781 O   0  0  0  0  0  0  0  0  0  0  0  0
    2.6998   -0.7476   -0.3786 P   0  0  0  0  0  0  0  0  0  0  0  0
    3.5454   -2.2813   -0.6942 C   0  0  0  0  0  0  0  0  0  0  0  0
    1.7144   -0.2124   -1.3805 O   0  0  0  0  0  0  0  0  0  0  0  0
    0.9631   -1.9271    0.6995 S   0  0  0  0  0  0  0  0  0  0  0  0
   -0.5173   -0.9539    0.2861 C   0  0  0  0  0  0  0  0  0  0  0  0
   -0.3858    0.5081    0.7315 C   0  0  0  0  0  0  0  0  0  0  0  0
   -1.7176    1.2722    0.6389 N   0  0  0  0  0  0  0  0  0  0  0  0
   -1.7223    2.4802    1.5965 C   0  0  0  0  0  0  0  0  0  0  0  0
   -3.1591    2.8773    1.9325 C   0  0  0  0  0  0  0  0  0  0  0  0
   -0.9047    3.6459    1.0558 C   0  0  0  0  0  0  0  0  0  0  0  0
   -2.2608    1.5696   -0.7722 C   0  0  0  0  0  0  0  0  0  0  0  0
   -1.1704    1.7791   -1.8165 C   0  0  0  0  0  0  0  0  0  0  0  0
   -3.2427    0.4719   -1.1804 C   0  0  0  0  0  0  0  0  0  0  0  0
    2.4897    0.7962    3.4660 H   0  0  0  0  0  0  0  0  0  0  0  0
    4.1246    1.2899    3.0362 H   0  0  0  0  0  0  0  0  0  0  0  0
    3.8835   -0.0467    4.1874 H   0  0  0  0  0  0  0  0  0  0  0  0
    4.5175   -0.9015    1.9217 H   0  0  0  0  0  0  0  0  0  0  0  0
    2.8782   -1.4295    2.3762 H   0  0  0  0  0  0  0  0  0  0  0  0
    3.6830   -2.8592    0.2239 H   0  0  0  0  0  0  0  0  0  0  0  0
    2.9742   -2.8979   -1.3933 H   0  0  0  0  0  0  0  0  0  0  0  0
    4.5281   -2.0906   -1.1335 H   0  0  0  0  0  0  0  0  0  0  0  0
   -1.3706   -1.4279    0.7815 H   0  0  0  0  0  0  0  0  0  0  0  0
   -0.6712   -1.0313   -0.7916 H   0  0  0  0  0  0  0  0  0  0  0  0
   -0.1017    0.5247    1.7899 H   0  0  0  0  0  0  0  0  0  0  0  0
    0.3605    1.0747    0.1739 H   0  0  0  0  0  0  0  0  0  0  0  0
   -2.4017    0.6353    1.0681 H   0  0  0  0  0  0  0  0  0  0  0  0
   -1.2650    2.1250    2.5275 H   0  0  0  0  0  0  0  0  0  0  0  0
   -3.6839    3.3225    1.0829 H   0  0  0  0  0  0  0  0  0  0  0  0
   -3.1638    3.6205    2.7382 H   0  0  0  0  0  0  0  0  0  0  0  0
   -3.7381    2.0151    2.2785 H   0  0  0  0  0  0  0  0  0  0  0  0
    0.1206    3.3450    0.8205 H   0  0  0  0  0  0  0  0  0  0  0  0
   -0.8438    4.4414    1.8073 H   0  0  0  0  0  0  0  0  0  0  0  0
   -1.3531    4.0854    0.1593 H   0  0  0  0  0  0  0  0  0  0  0  0
   -2.8363    2.4967   -0.6991 H   0  0  0  0  0  0  0  0  0  0  0  0
   -0.6438    0.8524   -2.0583 H   0  0  0  0  0  0  0  0  0  0  0  0
   -1.6165    2.1396   -2.7501 H   0  0  0  0  0  0  0  0  0  0  0  0
   -0.4351    2.5245   -1.5035 H   0  0  0  0  0  0  0  0  0  0  0  0
   -4.0383    0.3563   -0.4358 H   0  0  0  0  0  0  0  0  0  0  0  0
   -3.7214    0.7265   -2.1330 H   0  0  0  0  0  0  0  0  0  0  0  0
   -2.7566   -0.4982   -1.3101 H   0  0  0  0  0  0  0  0  0  0  0  0
    4.0980    0.2020   -1.2466 O   0  0  0  0  0  0  0  0  0  0  0  0
    4.7178    0.6229   -0.5994 H   0  0  0  0  0  0  0  0  0  0  0  0
  1  2  1  0
  2  3  1  0
  4  3  1  1
  4  5  1  0
  4  6  2  0
  7  8  1  0
  8  9  1  0
  9 10  1  0
 10 11  1  0
 11 12  1  0
 11 13  1  0
 10 14  1  0
 14 15  1  0
 14 16  1  0
  1 17  1  0
  1 18  1  0
  1 19  1  0
  2 20  1  0
  2 21  1  0
  5 22  1  0
  5 23  1  0
  5 24  1  0
  8 25  1  0
  8 26  1  0
  9 27  1  0
  9 28  1  0
 10 29  1  0
 11 30  1  0
 12 31  1  0
 12 32  1  0
 12 33  1  0
 13 34  1  0
 13 35  1  0
 13 36  1  0
 14 37  1  0
 15 38  1  0
 15 39  1  0
 15 40  1  0
 16 41  1  0
 16 42  1  0
 16 43  1  0
 44 45  1  0
  4 44  1  0
  4  7  1  0
M  CHG  1  10   1
M  END
$$$$
