VX
     RDKit          3D

 45 44  0  0  0  0  0  0  0  0999 V2000
    2.5435   -2.2329   -0.9601 C   0  0  0  0  0  0  0  0  0  0  0  0
    2.0702   -0.8263   -0.6279 C   0  0  0  0  0  0  0  0  0  0  0  0
    3.0276   -0.2011    0.2161 O   0  0  0  0  0  0  0  0  0  0  0  0
    2.8184    1.3645    0.5608 P   0  0  0  0  0  0  0  0  0  0  0  0
    4.0465    2.1101    1.6399 C   0  0  0  0  0  0  0  0  0  0  0  0
    1.6725    2.1967    0.0310 O   0  0  0  0  0  0  0  0  0  0  0  0
    1.5215    0.7768    2.4429 S   0  0  0  0  0  0  0  0  0  0  0  0
    1.0021    2.3873    3.1163 C   0  0  0  0  0  0  0  0  0  0  0  0
   -0.5209    2.4862    3.2974 C   0  0  0  0  0  0  0  0  0  0  0  0
   -1.2822    2.2959    1.9656 N   0  0  0  0  0  0  0  0  0  0  0  0
   -2.4526    1.2889    2.0747 C   0  0  0  0  0  0  0  0  0  0  0  0
   -1.9497   -0.1125    2.4154 C   0  0  0  0  0  0  0  0  0  0  0  0
   -3.5168    1.7719    3.0617 C   0  0  0  0  0  0  0  0  0  0  0  0
   -1.6882    3.6293    1.2831 C   0  0  0  0  0  0  0  0  0  0  0  0
   -0.4965    4.5723    1.1279 C   0  0  0  0  0  0  0  0  0  0  0  0
   -2.2976    3.3579   -0.0979 C   0  0  0  0  0  0  0  0  0  0  0  0
    1.8085   -2.7280   -1.6037 H   0  0  0  0  0  0  0  0  0  0  0  0
    3.5016   -2.2021   -1.4913 H   0  0  0  0  0  0  0  0  0  0  0  0
    2.6710   -2.8297   -0.0518 H   0  0  0  0  0  0  0  0  0  0  0  0
    1.9605   -0.2502   -1.5555 H   0  0  0  0  0  0  0  0  0  0  0  0
    1.1055   -0.8623   -0.1102 H   0  0  0  0  0  0  0  0  0  0  0  0
    3.5861    2.8547    2.2959 H   0  0  0  0  0  0  0  0  0  0  0  0
    4.5198    1.3419    2.2701 H   0  0  0  0  0  0  0  0  0  0  0  0
    4.8309    2.6043    1.0511 H   0  0  0  0  0  0  0  0  0  0  0  0
    1.3582    3.1724    2.4477 H   0  0  0  0  0  0  0  0  0  0  0  0
    1.5209    2.5397    4.0761 H   0  0  0  0  0  0  0  0  0  0  0  0
   -0.8144    3.4593    3.7134 H   0  0  0  0  0  0  0  0  0  0  0  0
   -0.8496    1.7273    4.0107 H   0  0  0  0  0  0  0  0  0  0  0  0
   -0.6054    1.8487    1.3249 H   0  0  0  0  0  0  0  0  0  0  0  0
   -2.8971    1.2171    1.0765 H   0  0  0  0  0  0  0  0  0  0  0  0
   -1.5712   -0.1800    3.4381 H   0  0  0  0  0  0  0  0  0  0  0  0
   -2.7728   -0.8349    2.3325 H   0  0  0  0  0  0  0  0  0  0  0  0
   -1.1737   -0.4331    1.7136 H   0  0  0  0  0  0  0  0  0  0  0  0
   -4.3500    1.0572    3.1006 H   0  0  0  0  0  0  0  0  0  0  0  0
   -3.1297    1.8684    4.0793 H   0  0  0  0  0  0  0  0  0  0  0  0
   -3.9395    2.7352    2.7703 H   0  0  0  0  0  0  0  0  0  0  0  0
   -2.4256    4.1067    1.9373 H   0  0  0  0  0  0  0  0  0  0  0  0
   -0.0965    4.8977    2.0929 H   0  0  0  0  0  0  0  0  0  0  0  0
   -0.8039    5.4853    0.6028 H   0  0  0  0  0  0  0  0  0  0  0  0
    0.3045    4.1226    0.5380 H   0  0  0  0  0  0  0  0  0  0  0  0
   -1.6989    2.6323   -0.6617 H   0  0  0  0  0  0  0  0  0  0  0  0
   -3.3237    2.9815   -0.0177 H   0  0  0  0  0  0  0  0  0  0  0  0
   -2.3550    4.2719   -0.6980 H   0  0  0  0  0  0  0  0  0  0  0  0
    3.8625    1.8376   -0.9544 O   0  0  0  0  0  0  0  0  0  0  0  0
    4.7331    2.2321   -0.6964 H   0  0  0  0  0  0  0  0  0  0  0  0
  1  2  1  0
  2  3  1  0
  4  3  1  1
  4  5  1  0
  4  6  2  0
  7  8  1  0
  8  9  1  0
  9 10  1  0
 10 11  1  0
 11 12  1  0
 11 13  1  0
 10 14  1  0
 14 15  1  0
 14 16  1  0
  1 17  1  0
  1 18  1  0
  1 19  1  0
  2 20  1  0
  2 21  1  0
  5 22  1  0
  5 23  1  0
  5 24  1  0
  8 25  1  0
  8 26  1  0
  9 27  1  0
  9 28  1  0
 10 29  1  0
 11 30  1  0
 12 31  1  0
 12 32  1  0
 12 33  1  0
 13 34  1  0
 13 35  1  0
 13 36  1  0
 14 37  1  0
 15 38  1  0
 15 39  1  0
 15 40  1  0
 16 41  1  0
 16 42  1  0
 16 43  1  0
 44 45  1  0
  4 44  1  0
  4  7  1  0
M  CHG  1  10   1
M  END
$$$$
