VX
     RDKit          3D

 45 44  0  0  0  0  0  0  0  0999 V2000
    3.8501   -1.9860   -1.1372 C   0  0  0  0  0  0  0  0  0  0  0  0
    3.4595   -0.5198   -1.1047 C   0  0  0  0  0  0  0  0  0  0  0  0
    3.0061   -0.1981    0.2022 O   0  0  0  0  0  0  0  0  0  0  0  0
    2.8321    1.3658    0.5706 P   0  0  0  0  0  0  0  0  0  0  0  0
    4.0397    2.1248    1.6397 C   0  0  0  0  0  0  0  0  0  0  0  0
    1.6871    2.1777    0.0352 O   0  0  0  0  0  0  0  0  0  0  0  0
    1.5352    0.7781    2.4527 S   0  0  0  0  0  0  0  0  0  0  0  0
   -0.0670    0.3957    1.6931 C   0  0  0  0  0  0  0  0  0  0  0  0
   -1.1183    0.1290    2.7717 C   0  0  0  0  0  0  0  0  0  0  0  0
   -2.4593   -0.3243    2.1717 N   0  0  0  0  0  0  0  0  0  0  0  0
   -3.3403   -1.1326    3.1456 C   0  0  0  0  0  0  0  0  0  0  0  0
   -2.9045   -2.5972    3.0953 C   0  0  0  0  0  0  0  0  0  0  0  0
   -3.3021   -0.5931    4.5731 C   0  0  0  0  0  0  0  0  0  0  0  0
   -3.1885    0.7675    1.3707 C   0  0  0  0  0  0  0  0  0  0  0  0
   -3.8900    1.7818    2.2628 C   0  0  0  0  0  0  0  0  0  0  0  0
   -4.1502    0.1223    0.3705 C   0  0  0  0  0  0  0  0  0  0  0  0
    4.6601   -2.1859   -0.4243 H   0  0  0  0  0  0  0  0  0  0  0  0
    3.0051   -2.6198   -0.8453 H   0  0  0  0  0  0  0  0  0  0  0  0
    4.1816   -2.2803   -2.1368 H   0  0  0  0  0  0  0  0  0  0  0  0
    2.6486   -0.3255   -1.8146 H   0  0  0  0  0  0  0  0  0  0  0  0
    4.3202    0.1032   -1.3684 H   0  0  0  0  0  0  0  0  0  0  0  0
    3.5810    2.9250    2.2266 H   0  0  0  0  0  0  0  0  0  0  0  0
    4.4606    1.3884    2.3307 H   0  0  0  0  0  0  0  0  0  0  0  0
    4.8590    2.5581    1.0609 H   0  0  0  0  0  0  0  0  0  0  0  0
   -0.3514    1.2468    1.0703 H   0  0  0  0  0  0  0  0  0  0  0  0
    0.0538   -0.4786    1.0442 H   0  0  0  0  0  0  0  0  0  0  0  0
   -0.7737   -0.6903    3.4106 H   0  0  0  0  0  0  0  0  0  0  0  0
   -1.3131    1.0124    3.3871 H   0  0  0  0  0  0  0  0  0  0  0  0
   -2.1875   -1.0083    1.4525 H   0  0  0  0  0  0  0  0  0  0  0  0
   -4.3662   -1.0765    2.7730 H   0  0  0  0  0  0  0  0  0  0  0  0
   -1.8737   -2.7298    3.4398 H   0  0  0  0  0  0  0  0  0  0  0  0
   -2.9756   -2.9935    2.0772 H   0  0  0  0  0  0  0  0  0  0  0  0
   -3.5513   -3.2098    3.7330 H   0  0  0  0  0  0  0  0  0  0  0  0
   -2.3313   -0.7569    5.0522 H   0  0  0  0  0  0  0  0  0  0  0  0
   -4.0479   -1.1123    5.1860 H   0  0  0  0  0  0  0  0  0  0  0  0
   -3.5287    0.4738    4.6228 H   0  0  0  0  0  0  0  0  0  0  0  0
   -2.4217    1.2827    0.7863 H   0  0  0  0  0  0  0  0  0  0  0  0
   -3.2035    2.2349    2.9835 H   0  0  0  0  0  0  0  0  0  0  0  0
   -4.7286    1.3392    2.8093 H   0  0  0  0  0  0  0  0  0  0  0  0
   -4.3005    2.5951    1.6532 H   0  0  0  0  0  0  0  0  0  0  0  0
   -5.0125   -0.3423    0.8574 H   0  0  0  0  0  0  0  0  0  0  0  0
   -3.6445   -0.6393   -0.2317 H   0  0  0  0  0  0  0  0  0  0  0  0
   -4.5406    0.8800   -0.3171 H   0  0  0  0  0  0  0  0  0  0  0  0
    3.8762    1.8389   -0.9446 O   0  0  0  0  0  0  0  0  0  0  0  0
    4.7468    2.2334   -0.6866 H   0  0  0  0  0  0  0  0  0  0  0  0
  1  2  1  0
  2  3  1  0
  4  3  1  1
  4  5  1  0
  4  6  2  0
  7  8  1  0
  8  9  1  0
  9 10  1  0
 10 11  1  0
 11 12  1  0
 11 13  1  0
 10 14  1  0
 14 15  1  0
 14 16  1  0
  1 17  1  0
  1 18  1  0
  1 19  1  0
  2 20  1  0
  2 21  1  0
  5 22  1  0
  5 23  1  0
  5 24  1  0
  8 25  1  0
  8 26  1  0
  9 27  1  0
  9 28  1  0
 10 29  1  0
 11 30  1  0
 12 31  1  0
 12 32  1  0
 12 33  1  0
 13 34  1  0
 13 35  1  0
 13 36  1  0
 14 37  1  0
 15 38  1  0
 15 39  1  0
 15 40  1  0
 16 41  1  0
 16 42  1  0
 16 43  1  0
 44 45  1  0
  4 44  1  0
  4  7  1  0
M  CHG  1  10   1
M  END
$$$$
