VX
     RDKit          3D

 45 44  0  0  0  0  0  0  0  0999 V2000
    2.3497   -0.5078    3.2116 C   0  0  0  0  0  0  0  0  0  0  0  0
    3.4370   -0.5425    2.1579 C   0  0  0  0  0  0  0  0  0  0  0  0
    2.9711    0.0914    0.9763 O   0  0  0  0  0  0  0  0  0  0  0  0
    2.7019   -0.7497   -0.3775 P   0  0  0  0  0  0  0  0  0  0  0  0
    3.5452   -2.2835   -0.6969 C   0  0  0  0  0  0  0  0  0  0  0  0
    1.7160   -0.2116   -1.3771 O   0  0  0  0  0  0  0  0  0  0  0  0
    0.9651   -1.9291    0.7005 S   0  0  0  0  0  0  0  0  0  0  0  0
   -0.4891   -0.8562    0.4566 C   0  0  0  0  0  0  0  0  0  0  0  0
   -0.2138    0.5937    0.8763 C   0  0  0  0  0  0  0  0  0  0  0  0
   -1.4883    1.4462    0.9212 N   0  0  0  0  0  0  0  0  0  0  0  0
   -1.3766    2.6747    1.8522 C   0  0  0  0  0  0  0  0  0  0  0  0
   -0.1886    3.5605    1.4849 C   0  0  0  0  0  0  0  0  0  0  0  0
   -1.3348    2.2256    3.3134 C   0  0  0  0  0  0  0  0  0  0  0  0
   -2.1273    1.8177   -0.4340 C   0  0  0  0  0  0  0  0  0  0  0  0
   -3.2544    0.8383   -0.7480 C   0  0  0  0  0  0  0  0  0  0  0  0
   -1.1301    1.9210   -1.5842 C   0  0  0  0  0  0  0  0  0  0  0  0
    1.4892   -1.1025    2.8966 H   0  0  0  0  0  0  0  0  0  0  0  0
    1.9877    0.5104    3.3734 H   0  0  0  0  0  0  0  0  0  0  0  0
    2.7085   -0.9037    4.1647 H   0  0  0  0  0  0  0  0  0  0  0  0
    3.7415   -1.5764    1.9683 H   0  0  0  0  0  0  0  0  0  0  0  0
    4.3153    0.0046    2.5158 H   0  0  0  0  0  0  0  0  0  0  0  0
    4.5130   -2.0945   -1.1734 H   0  0  0  0  0  0  0  0  0  0  0  0
    3.7215   -2.8529    0.2166 H   0  0  0  0  0  0  0  0  0  0  0  0
    2.9532   -2.9057   -1.3725 H   0  0  0  0  0  0  0  0  0  0  0  0
   -0.7732   -0.9167   -0.5936 H   0  0  0  0  0  0  0  0  0  0  0  0
   -1.3080   -1.2761    1.0496 H   0  0  0  0  0  0  0  0  0  0  0  0
    0.1874    0.5904    1.8895 H   0  0  0  0  0  0  0  0  0  0  0  0
    0.5036    1.1103    0.2390 H   0  0  0  0  0  0  0  0  0  0  0  0
   -2.1897    0.8602    1.3942 H   0  0  0  0  0  0  0  0  0  0  0  0
   -2.3063    3.2371    1.7223 H   0  0  0  0  0  0  0  0  0  0  0  0
   -0.1756    4.4628    2.1152 H   0  0  0  0  0  0  0  0  0  0  0  0
    0.7721    3.0441    1.6371 H   0  0  0  0  0  0  0  0  0  0  0  0
   -0.2476    3.9020    0.4489 H   0  0  0  0  0  0  0  0  0  0  0  0
   -2.1731    1.5575    3.5466 H   0  0  0  0  0  0  0  0  0  0  0  0
   -1.4052    3.0893    3.9814 H   0  0  0  0  0  0  0  0  0  0  0  0
   -0.4088    1.7073    3.5663 H   0  0  0  0  0  0  0  0  0  0  0  0
   -2.5884    2.8003   -0.2972 H   0  0  0  0  0  0  0  0  0  0  0  0
   -3.7855    1.1569   -1.6549 H   0  0  0  0  0  0  0  0  0  0  0  0
   -2.8854   -0.1779   -0.9148 H   0  0  0  0  0  0  0  0  0  0  0  0
   -3.9875    0.8095    0.0680 H   0  0  0  0  0  0  0  0  0  0  0  0
   -0.2856    2.5768   -1.3505 H   0  0  0  0  0  0  0  0  0  0  0  0
   -0.7331    0.9445   -1.8800 H   0  0  0  0  0  0  0  0  0  0  0  0
   -1.6256    2.3431   -2.4658 H   0  0  0  0  0  0  0  0  0  0  0  0
    4.1002    0.1998   -1.2454 O   0  0  0  0  0  0  0  0  0  0  0  0
    4.7200    0.6207   -0.5982 H   0  0  0  0  0  0  0  0  0  0  0  0
  1  2  1  0
  2  3  1  0
  4  3  1  1
  4  5  1  0
  4  6  2  0
  7  8  1  0
  8  9  1  0
  9 10  1  0
 10 11  1  0
 11 12  1  0
 11 13  1  0
 10 14  1  0
 14 15  1  0
 14 16  1  0
  1 17  1  0
  1 18  1  0
  1 19  1  0
  2 20  1  0
  2 21  1  0
  5 22  1  0
  5 23  1  0
  5 24  1  0
  8 25  1  0
  8 26  1  0
  9 27  1  0
  9 28  1  0
 10 29  1  0
 11 30  1  0
 12 31  1  0
 12 32  1  0
 12 33  1  0
 13 34  1  0
 13 35  1  0
 13 36  1  0
 14 37  1  0
 15 38  1  0
 15 39  1  0
 15 40  1  0
 16 41  1  0
 16 42  1  0
 16 43  1  0
 44 45  1  0
  4 44  1  0
  4  7  1  0
M  CHG  1  10   1
M  END
$$$$
