VX
     RDKit          3D

 45 44  0  0  0  0  0  0  0  0999 V2000
    3.3582   -2.4895    0.7367 C   0  0  0  0  0  0  0  0  0  0  0  0
    3.7646   -1.0584    1.0216 C   0  0  0  0  0  0  0  0  0  0  0  0
    2.9979   -0.1978    0.1966 O   0  0  0  0  0  0  0  0  0  0  0  0
    2.8371    1.3648    0.5738 P   0  0  0  0  0  0  0  0  0  0  0  0
    4.0410    2.1316    1.6428 C   0  0  0  0  0  0  0  0  0  0  0  0
    1.6889    2.1714    0.0345 O   0  0  0  0  0  0  0  0  0  0  0  0
    1.5402    0.7771    2.4559 S   0  0  0  0  0  0  0  0  0  0  0  0
   -0.1116    0.6506    1.7184 C   0  0  0  0  0  0  0  0  0  0  0  0
   -1.1562    0.2684    2.7652 C   0  0  0  0  0  0  0  0  0  0  0  0
   -2.5650    0.2457    2.1279 N   0  0  0  0  0  0  0  0  0  0  0  0
   -3.2228   -1.1443    2.1531 C   0  0  0  0  0  0  0  0  0  0  0  0
   -3.5084   -1.6120    3.5765 C   0  0  0  0  0  0  0  0  0  0  0  0
   -2.3736   -2.1436    1.3661 C   0  0  0  0  0  0  0  0  0  0  0  0
   -3.4506    1.4071    2.6382 C   0  0  0  0  0  0  0  0  0  0  0  0
   -2.8118    2.7459    2.2531 C   0  0  0  0  0  0  0  0  0  0  0  0
   -4.8521    1.3432    2.0290 C   0  0  0  0  0  0  0  0  0  0  0  0
    2.2928   -2.6354    0.9438 H   0  0  0  0  0  0  0  0  0  0  0  0
    3.9357   -3.1885    1.3479 H   0  0  0  0  0  0  0  0  0  0  0  0
    3.5134   -2.7320   -0.3198 H   0  0  0  0  0  0  0  0  0  0  0  0
    4.8250   -0.9173    0.7921 H   0  0  0  0  0  0  0  0  0  0  0  0
    3.5974   -0.8255    2.0772 H   0  0  0  0  0  0  0  0  0  0  0  0
    3.5974    2.9874    2.1596 H   0  0  0  0  0  0  0  0  0  0  0  0
    4.4070    1.4338    2.4008 H   0  0  0  0  0  0  0  0  0  0  0  0
    4.8951    2.4896    1.0612 H   0  0  0  0  0  0  0  0  0  0  0  0
   -0.0792   -0.0979    0.9203 H   0  0  0  0  0  0  0  0  0  0  0  0
   -0.3617    1.6133    1.2644 H   0  0  0  0  0  0  0  0  0  0  0  0
   -1.1808    0.9671    3.6079 H   0  0  0  0  0  0  0  0  0  0  0  0
   -0.9411   -0.7210    3.1759 H   0  0  0  0  0  0  0  0  0  0  0  0
   -2.4427    0.4452    1.1249 H   0  0  0  0  0  0  0  0  0  0  0  0
   -4.1643   -1.0476    1.6047 H   0  0  0  0  0  0  0  0  0  0  0  0
   -2.5966   -1.7511    4.1640 H   0  0  0  0  0  0  0  0  0  0  0  0
   -4.0300   -2.5754    3.5561 H   0  0  0  0  0  0  0  0  0  0  0  0
   -4.1524   -0.9087    4.1125 H   0  0  0  0  0  0  0  0  0  0  0  0
   -1.4313   -2.3846    1.8665 H   0  0  0  0  0  0  0  0  0  0  0  0
   -2.9213   -3.0846    1.2423 H   0  0  0  0  0  0  0  0  0  0  0  0
   -2.1435   -1.7623    0.3657 H   0  0  0  0  0  0  0  0  0  0  0  0
   -3.5064    1.3135    3.7282 H   0  0  0  0  0  0  0  0  0  0  0  0
   -3.4579    3.5791    2.5517 H   0  0  0  0  0  0  0  0  0  0  0  0
   -1.8506    2.9045    2.7497 H   0  0  0  0  0  0  0  0  0  0  0  0
   -2.6546    2.8169    1.1713 H   0  0  0  0  0  0  0  0  0  0  0  0
   -4.8134    1.2617    0.9373 H   0  0  0  0  0  0  0  0  0  0  0  0
   -5.4219    2.2459    2.2767 H   0  0  0  0  0  0  0  0  0  0  0  0
   -5.4279    0.5006    2.4233 H   0  0  0  0  0  0  0  0  0  0  0  0
    3.8812    1.8379   -0.9414 O   0  0  0  0  0  0  0  0  0  0  0  0
    4.7518    2.2324   -0.6834 H   0  0  0  0  0  0  0  0  0  0  0  0
  1  2  1  0
  2  3  1  0
  4  3  1  1
  4  5  1  0
  4  6  2  0
  7  8  1  0
  8  9  1  0
  9 10  1  0
 10 11  1  0
 11 12  1  0
 11 13  1  0
 10 14  1  0
 14 15  1  0
 14 16  1  0
  1 17  1  0
  1 18  1  0
  1 19  1  0
  2 20  1  0
  2 21  1  0
  5 22  1  0
  5 23  1  0
  5 24  1  0
  8 25  1  0
  8 26  1  0
  9 27  1  0
  9 28  1  0
 10 29  1  0
 11 30  1  0
 12 31  1  0
 12 32  1  0
 12 33  1  0
 13 34  1  0
 13 35  1  0
 13 36  1  0
 14 37  1  0
 15 38  1  0
 15 39  1  0
 15 40  1  0
 16 41  1  0
 16 42  1  0
 16 43  1  0
 44 45  1  0
  4 44  1  0
  4  7  1  0
M  CHG  1  10   1
M  END
$$$$
