VX
     RDKit          3D

 45 44  0  0  0  0  0  0  0  0999 V2000
    2.3753   -1.0747   -1.9280 C   0  0  0  0  0  0  0  0  0  0  0  0
    3.5105   -0.5371   -1.0814 C   0  0  0  0  0  0  0  0  0  0  0  0
    3.0096   -0.1981    0.2046 O   0  0  0  0  0  0  0  0  0  0  0  0
    2.8293    1.3664    0.5689 P   0  0  0  0  0  0  0  0  0  0  0  0
    4.0389    2.1219    1.6383 C   0  0  0  0  0  0  0  0  0  0  0  0
    1.6872    2.1798    0.0359 O   0  0  0  0  0  0  0  0  0  0  0  0
    1.5324    0.7787    2.4510 S   0  0  0  0  0  0  0  0  0  0  0  0
   -0.0679    0.3813    1.6719 C   0  0  0  0  0  0  0  0  0  0  0  0
   -1.1341    0.0062    2.7073 C   0  0  0  0  0  0  0  0  0  0  0  0
   -0.5782   -0.9712    3.7752 N   0  0  0  0  0  0  0  0  0  0  0  0
   -0.9935   -2.4315    3.5183 C   0  0  0  0  0  0  0  0  0  0  0  0
   -0.5861   -2.8593    2.1038 C   0  0  0  0  0  0  0  0  0  0  0  0
   -0.3357   -3.3905    4.5066 C   0  0  0  0  0  0  0  0  0  0  0  0
   -0.8033   -0.3785    5.1801 C   0  0  0  0  0  0  0  0  0  0  0  0
    0.2975   -0.7868    6.1555 C   0  0  0  0  0  0  0  0  0  0  0  0
   -2.2103   -0.6574    5.6911 C   0  0  0  0  0  0  0  0  0  0  0  0
    2.7328   -1.3672   -2.9191 H   0  0  0  0  0  0  0  0  0  0  0  0
    1.9146   -1.9442   -1.4478 H   0  0  0  0  0  0  0  0  0  0  0  0
    1.5883   -0.3225   -2.0444 H   0  0  0  0  0  0  0  0  0  0  0  0
    4.2797   -1.3043   -0.9508 H   0  0  0  0  0  0  0  0  0  0  0  0
    3.9759    0.3282   -1.5637 H   0  0  0  0  0  0  0  0  0  0  0  0
    4.8781    2.5181    1.0603 H   0  0  0  0  0  0  0  0  0  0  0  0
    3.5918    2.9483    2.1978 H   0  0  0  0  0  0  0  0  0  0  0  0
    4.4303    1.3944    2.3550 H   0  0  0  0  0  0  0  0  0  0  0  0
    0.0984   -0.4338    0.9635 H   0  0  0  0  0  0  0  0  0  0  0  0
   -0.4136    1.2459    1.0968 H   0  0  0  0  0  0  0  0  0  0  0  0
   -1.4791    0.9147    3.2129 H   0  0  0  0  0  0  0  0  0  0  0  0
   -2.0167   -0.4506    2.2482 H   0  0  0  0  0  0  0  0  0  0  0  0
    0.4456   -0.9276    3.6413 H   0  0  0  0  0  0  0  0  0  0  0  0
   -2.0839   -2.4763    3.6128 H   0  0  0  0  0  0  0  0  0  0  0  0
   -0.7905   -3.9247    1.9484 H   0  0  0  0  0  0  0  0  0  0  0  0
    0.4826   -2.6973    1.9278 H   0  0  0  0  0  0  0  0  0  0  0  0
   -1.1538   -2.3280    1.3351 H   0  0  0  0  0  0  0  0  0  0  0  0
   -0.4768   -4.4309    4.1916 H   0  0  0  0  0  0  0  0  0  0  0  0
   -0.7890   -3.3214    5.4975 H   0  0  0  0  0  0  0  0  0  0  0  0
    0.7419   -3.2145    4.5876 H   0  0  0  0  0  0  0  0  0  0  0  0
   -0.6873    0.7062    5.0639 H   0  0  0  0  0  0  0  0  0  0  0  0
    1.2888   -0.7196    5.6965 H   0  0  0  0  0  0  0  0  0  0  0  0
    0.2919   -0.1092    7.0175 H   0  0  0  0  0  0  0  0  0  0  0  0
    0.1670   -1.7910    6.5603 H   0  0  0  0  0  0  0  0  0  0  0  0
   -2.3909   -0.1017    6.6178 H   0  0  0  0  0  0  0  0  0  0  0  0
   -2.9674   -0.3421    4.9659 H   0  0  0  0  0  0  0  0  0  0  0  0
   -2.3711   -1.7157    5.9136 H   0  0  0  0  0  0  0  0  0  0  0  0
    3.8734    1.8395   -0.9463 O   0  0  0  0  0  0  0  0  0  0  0  0
    4.7440    2.2340   -0.6883 H   0  0  0  0  0  0  0  0  0  0  0  0
  1  2  1  0
  2  3  1  0
  4  3  1  1
  4  5  1  0
  4  6  2  0
  7  8  1  0
  8  9  1  0
  9 10  1  0
 10 11  1  0
 11 12  1  0
 11 13  1  0
 10 14  1  0
 14 15  1  0
 14 16  1  0
  1 17  1  0
  1 18  1  0
  1 19  1  0
  2 20  1  0
  2 21  1  0
  5 22  1  0
  5 23  1  0
  5 24  1  0
  8 25  1  0
  8 26  1  0
  9 27  1  0
  9 28  1  0
 10 29  1  0
 11 30  1  0
 12 31  1  0
 12 32  1  0
 12 33  1  0
 13 34  1  0
 13 35  1  0
 13 36  1  0
 14 37  1  0
 15 38  1  0
 15 39  1  0
 15 40  1  0
 16 41  1  0
 16 42  1  0
 16 43  1  0
 44 45  1  0
  4 44  1  0
  4  7  1  0
M  CHG  1  10   1
M  END
$$$$
