VX
     RDKit          3D

 45 44  0  0  0  0  0  0  0  0999 V2000
    4.0753    1.7107    2.3261 C   0  0  0  0  0  0  0  0  0  0  0  0
    3.8106    1.2196    0.9182 C   0  0  0  0  0  0  0  0  0  0  0  0
    3.0043    0.0536    0.9884 O   0  0  0  0  0  0  0  0  0  0  0  0
    2.6802   -0.7266   -0.3873 P   0  0  0  0  0  0  0  0  0  0  0  0
    3.5479   -2.2610   -0.6681 C   0  0  0  0  0  0  0  0  0  0  0  0
    1.7018   -0.2192   -1.4082 O   0  0  0  0  0  0  0  0  0  0  0  0
    0.9435   -1.9061    0.6908 S   0  0  0  0  0  0  0  0  0  0  0  0
   -0.1624   -2.3845   -0.6712 C   0  0  0  0  0  0  0  0  0  0  0  0
   -1.5769   -2.7422   -0.2017 C   0  0  0  0  0  0  0  0  0  0  0  0
   -2.5894   -1.5935   -0.0959 N   0  0  0  0  0  0  0  0  0  0  0  0
   -2.1989   -0.4316    0.8297 C   0  0  0  0  0  0  0  0  0  0  0  0
   -3.4415    0.0387    1.5940 C   0  0  0  0  0  0  0  0  0  0  0  0
   -1.5471    0.7298    0.0904 C   0  0  0  0  0  0  0  0  0  0  0  0
   -3.3786   -1.2285   -1.3631 C   0  0  0  0  0  0  0  0  0  0  0  0
   -2.5046   -1.0902   -2.6020 C   0  0  0  0  0  0  0  0  0  0  0  0
   -4.4800   -2.2694   -1.5823 C   0  0  0  0  0  0  0  0  0  0  0  0
    4.5862    0.9403    2.9132 H   0  0  0  0  0  0  0  0  0  0  0  0
    4.6923    2.6135    2.3153 H   0  0  0  0  0  0  0  0  0  0  0  0
    3.1345    1.9316    2.8410 H   0  0  0  0  0  0  0  0  0  0  0  0
    3.2829    1.9883    0.3449 H   0  0  0  0  0  0  0  0  0  0  0  0
    4.7548    0.9879    0.4169 H   0  0  0  0  0  0  0  0  0  0  0  0
    4.4885   -2.0874   -1.1972 H   0  0  0  0  0  0  0  0  0  0  0  0
    2.9385   -2.9376   -1.2740 H   0  0  0  0  0  0  0  0  0  0  0  0
    3.7731   -2.7572    0.2801 H   0  0  0  0  0  0  0  0  0  0  0  0
   -0.1731   -1.6055   -1.4311 H   0  0  0  0  0  0  0  0  0  0  0  0
    0.2899   -3.2703   -1.1297 H   0  0  0  0  0  0  0  0  0  0  0  0
   -1.5641   -3.2270    0.7822 H   0  0  0  0  0  0  0  0  0  0  0  0
   -2.0162   -3.4641   -0.8974 H   0  0  0  0  0  0  0  0  0  0  0  0
   -3.3096   -2.0541    0.4744 H   0  0  0  0  0  0  0  0  0  0  0  0
   -1.5125   -0.8463    1.5725 H   0  0  0  0  0  0  0  0  0  0  0  0
   -3.1698    0.8132    2.3198 H   0  0  0  0  0  0  0  0  0  0  0  0
   -3.8978   -0.7865    2.1515 H   0  0  0  0  0  0  0  0  0  0  0  0
   -4.2016    0.4610    0.9298 H   0  0  0  0  0  0  0  0  0  0  0  0
   -2.2497    1.2433   -0.5733 H   0  0  0  0  0  0  0  0  0  0  0  0
   -1.1883    1.4745    0.8101 H   0  0  0  0  0  0  0  0  0  0  0  0
   -0.6868    0.4190   -0.5026 H   0  0  0  0  0  0  0  0  0  0  0  0
   -3.8713   -0.2720   -1.1640 H   0  0  0  0  0  0  0  0  0  0  0  0
   -2.0330   -2.0369   -2.8829 H   0  0  0  0  0  0  0  0  0  0  0  0
   -1.7273   -0.3334   -2.4751 H   0  0  0  0  0  0  0  0  0  0  0  0
   -3.1155   -0.7746   -3.4557 H   0  0  0  0  0  0  0  0  0  0  0  0
   -4.0723   -3.2626   -1.7945 H   0  0  0  0  0  0  0  0  0  0  0  0
   -5.1100   -1.9831   -2.4317 H   0  0  0  0  0  0  0  0  0  0  0  0
   -5.1301   -2.3474   -0.7043 H   0  0  0  0  0  0  0  0  0  0  0  0
    4.0784    0.2230   -1.2553 O   0  0  0  0  0  0  0  0  0  0  0  0
    4.6982    0.6439   -0.6081 H   0  0  0  0  0  0  0  0  0  0  0  0
  1  2  1  0
  2  3  1  0
  4  3  1  1
  4  5  1  0
  4  6  2  0
  7  8  1  0
  8  9  1  0
  9 10  1  0
 10 11  1  0
 11 12  1  0
 11 13  1  0
 10 14  1  0
 14 15  1  0
 14 16  1  0
  1 17  1  0
  1 18  1  0
  1 19  1  0
  2 20  1  0
  2 21  1  0
  5 22  1  0
  5 23  1  0
  5 24  1  0
  8 25  1  0
  8 26  1  0
  9 27  1  0
  9 28  1  0
 10 29  1  0
 11 30  1  0
 12 31  1  0
 12 32  1  0
 12 33  1  0
 13 34  1  0
 13 35  1  0
 13 36  1  0
 14 37  1  0
 15 38  1  0
 15 39  1  0
 15 40  1  0
 16 41  1  0
 16 42  1  0
 16 43  1  0
 44 45  1  0
  4 44  1  0
  4  7  1  0
M  CHG  1  10   1
M  END
$$$$
