VX
     RDKit          3D

 45 44  0  0  0  0  0  0  0  0999 V2000
    2.1573   -0.8910   -1.9352 C   0  0  0  0  0  0  0  0  0  0  0  0
    3.3907   -0.5478   -1.1185 C   0  0  0  0  0  0  0  0  0  0  0  0
    3.0054   -0.2017    0.2006 O   0  0  0  0  0  0  0  0  0  0  0  0
    2.8327    1.3659    0.5711 P   0  0  0  0  0  0  0  0  0  0  0  0
    4.0418    2.1272    1.6419 C   0  0  0  0  0  0  0  0  0  0  0  0
    1.6851    2.1787    0.0341 O   0  0  0  0  0  0  0  0  0  0  0  0
    1.5358    0.7782    2.4532 S   0  0  0  0  0  0  0  0  0  0  0  0
    0.2101   -0.2067    1.6950 C   0  0  0  0  0  0  0  0  0  0  0  0
   -1.0760   -0.0373    2.5093 C   0  0  0  0  0  0  0  0  0  0  0  0
   -2.2758   -0.8775    2.0263 N   0  0  0  0  0  0  0  0  0  0  0  0
   -1.9785   -2.3851    1.9585 C   0  0  0  0  0  0  0  0  0  0  0  0
   -1.6355   -2.8861    0.5660 C   0  0  0  0  0  0  0  0  0  0  0  0
   -3.1150   -3.1910    2.5942 C   0  0  0  0  0  0  0  0  0  0  0  0
   -3.1751   -0.1520    1.0135 C   0  0  0  0  0  0  0  0  0  0  0  0
   -4.5153   -0.8596    0.8356 C   0  0  0  0  0  0  0  0  0  0  0  0
   -2.5079    0.1591   -0.3219 C   0  0  0  0  0  0  0  0  0  0  0  0
    1.5340   -1.6419   -1.4280 H   0  0  0  0  0  0  0  0  0  0  0  0
    1.5280   -0.0027   -2.0873 H   0  0  0  0  0  0  0  0  0  0  0  0
    2.4551   -1.2771   -2.9126 H   0  0  0  0  0  0  0  0  0  0  0  0
    3.9623    0.2666   -1.5831 H   0  0  0  0  0  0  0  0  0  0  0  0
    4.0441   -1.4223   -1.0513 H   0  0  0  0  0  0  0  0  0  0  0  0
    3.5849    2.9224    2.2442 H   0  0  0  0  0  0  0  0  0  0  0  0
    4.4711    1.3792    2.3244 H   0  0  0  0  0  0  0  0  0  0  0  0
    4.8628    2.5745    1.0620 H   0  0  0  0  0  0  0  0  0  0  0  0
    0.0698    0.1100    0.6602 H   0  0  0  0  0  0  0  0  0  0  0  0
    0.5548   -1.2470    1.6854 H   0  0  0  0  0  0  0  0  0  0  0  0
   -0.9085   -0.3514    3.5505 H   0  0  0  0  0  0  0  0  0  0  0  0
   -1.4098    1.0092    2.5279 H   0  0  0  0  0  0  0  0  0  0  0  0
   -2.8728   -0.8200    2.8667 H   0  0  0  0  0  0  0  0  0  0  0  0
   -1.1027   -2.5375    2.6052 H   0  0  0  0  0  0  0  0  0  0  0  0
   -0.8214   -2.3149    0.1099 H   0  0  0  0  0  0  0  0  0  0  0  0
   -2.4964   -2.8748   -0.1078 H   0  0  0  0  0  0  0  0  0  0  0  0
   -1.2995   -3.9293    0.6236 H   0  0  0  0  0  0  0  0  0  0  0  0
   -3.3903   -2.7807    3.5745 H   0  0  0  0  0  0  0  0  0  0  0  0
   -2.7919   -4.2256    2.7553 H   0  0  0  0  0  0  0  0  0  0  0  0
   -4.0076   -3.2349    1.9694 H   0  0  0  0  0  0  0  0  0  0  0  0
   -3.3996    0.8116    1.4931 H   0  0  0  0  0  0  0  0  0  0  0  0
   -5.1995   -0.2246    0.2588 H   0  0  0  0  0  0  0  0  0  0  0  0
   -4.9954   -1.0572    1.7961 H   0  0  0  0  0  0  0  0  0  0  0  0
   -4.4181   -1.7978    0.2820 H   0  0  0  0  0  0  0  0  0  0  0  0
   -1.7074    0.9046   -0.2150 H   0  0  0  0  0  0  0  0  0  0  0  0
   -3.2475    0.6054   -1.0004 H   0  0  0  0  0  0  0  0  0  0  0  0
   -2.1121   -0.7224   -0.8266 H   0  0  0  0  0  0  0  0  0  0  0  0
    3.8768    1.8390   -0.9441 O   0  0  0  0  0  0  0  0  0  0  0  0
    4.7474    2.2335   -0.6861 H   0  0  0  0  0  0  0  0  0  0  0  0
  1  2  1  0
  2  3  1  0
  4  3  1  1
  4  5  1  0
  4  6  2  0
  7  8  1  0
  8  9  1  0
  9 10  1  0
 10 11  1  0
 11 12  1  0
 11 13  1  0
 10 14  1  0
 14 15  1  0
 14 16  1  0
  1 17  1  0
  1 18  1  0
  1 19  1  0
  2 20  1  0
  2 21  1  0
  5 22  1  0
  5 23  1  0
  5 24  1  0
  8 25  1  0
  8 26  1  0
  9 27  1  0
  9 28  1  0
 10 29  1  0
 11 30  1  0
 12 31  1  0
 12 32  1  0
 12 33  1  0
 13 34  1  0
 13 35  1  0
 13 36  1  0
 14 37  1  0
 15 38  1  0
 15 39  1  0
 15 40  1  0
 16 41  1  0
 16 42  1  0
 16 43  1  0
 44 45  1  0
  4 44  1  0
  4  7  1  0
M  CHG  1  10   1
M  END
$$$$
