VX
     RDKit          3D

 45 44  0  0  0  0  0  0  0  0999 V2000
    2.3533   -1.0425   -1.9108 C   0  0  0  0  0  0  0  0  0  0  0  0
    2.0033   -0.9052   -0.4434 C   0  0  0  0  0  0  0  0  0  0  0  0
    3.0339   -0.1948    0.2224 O   0  0  0  0  0  0  0  0  0  0  0  0
    2.8153    1.3660    0.5592 P   0  0  0  0  0  0  0  0  0  0  0  0
    4.0382    2.1006    1.6312 C   0  0  0  0  0  0  0  0  0  0  0  0
    1.6775    2.1983    0.0350 O   0  0  0  0  0  0  0  0  0  0  0  0
    1.5184    0.7783    2.4412 S   0  0  0  0  0  0  0  0  0  0  0  0
    0.4135    2.1957    2.6853 C   0  0  0  0  0  0  0  0  0  0  0  0
   -0.7545    2.1807    1.6912 C   0  0  0  0  0  0  0  0  0  0  0  0
   -1.7721    3.3096    2.0352 N   0  0  0  0  0  0  0  0  0  0  0  0
   -3.1183    2.6713    2.4239 C   0  0  0  0  0  0  0  0  0  0  0  0
   -3.9331    2.2687    1.2013 C   0  0  0  0  0  0  0  0  0  0  0  0
   -3.8885    3.5315    3.4218 C   0  0  0  0  0  0  0  0  0  0  0  0
   -1.7559    4.4249    0.9636 C   0  0  0  0  0  0  0  0  0  0  0  0
   -0.3558    5.0498    0.9011 C   0  0  0  0  0  0  0  0  0  0  0  0
   -2.7448    5.5425    1.2842 C   0  0  0  0  0  0  0  0  0  0  0  0
    3.3166   -1.5490   -2.0313 H   0  0  0  0  0  0  0  0  0  0  0  0
    1.5862   -1.6125   -2.4424 H   0  0  0  0  0  0  0  0  0  0  0  0
    2.4505   -0.0592   -2.3816 H   0  0  0  0  0  0  0  0  0  0  0  0
    1.0393   -0.4011   -0.3187 H   0  0  0  0  0  0  0  0  0  0  0  0
    1.9255   -1.8945    0.0176 H   0  0  0  0  0  0  0  0  0  0  0  0
    4.8738    2.4915    1.0439 H   0  0  0  0  0  0  0  0  0  0  0  0
    3.6031    2.9262    2.2015 H   0  0  0  0  0  0  0  0  0  0  0  0
    4.4300    1.3624    2.3366 H   0  0  0  0  0  0  0  0  0  0  0  0
    0.9941    3.1191    2.6057 H   0  0  0  0  0  0  0  0  0  0  0  0
    0.0277    2.1370    3.7086 H   0  0  0  0  0  0  0  0  0  0  0  0
   -0.4572    2.3111    0.6495 H   0  0  0  0  0  0  0  0  0  0  0  0
   -1.2832    1.2224    1.7458 H   0  0  0  0  0  0  0  0  0  0  0  0
   -1.4339    3.7613    2.8944 H   0  0  0  0  0  0  0  0  0  0  0  0
   -2.8539    1.7625    2.9797 H   0  0  0  0  0  0  0  0  0  0  0  0
   -4.2995    3.1307    0.6384 H   0  0  0  0  0  0  0  0  0  0  0  0
   -4.8102    1.6889    1.5097 H   0  0  0  0  0  0  0  0  0  0  0  0
   -3.3498    1.6422    0.5189 H   0  0  0  0  0  0  0  0  0  0  0  0
   -4.4113    4.3692    2.9588 H   0  0  0  0  0  0  0  0  0  0  0  0
   -3.2327    3.9191    4.2081 H   0  0  0  0  0  0  0  0  0  0  0  0
   -4.6592    2.9240    3.9109 H   0  0  0  0  0  0  0  0  0  0  0  0
   -2.0061    3.9561    0.0056 H   0  0  0  0  0  0  0  0  0  0  0  0
   -0.0428    5.4271    1.8809 H   0  0  0  0  0  0  0  0  0  0  0  0
    0.3998    4.3448    0.5502 H   0  0  0  0  0  0  0  0  0  0  0  0
   -0.3402    5.8911    0.1989 H   0  0  0  0  0  0  0  0  0  0  0  0
   -2.6283    5.9051    2.3108 H   0  0  0  0  0  0  0  0  0  0  0  0
   -2.5907    6.3972    0.6150 H   0  0  0  0  0  0  0  0  0  0  0  0
   -3.7789    5.2303    1.1277 H   0  0  0  0  0  0  0  0  0  0  0  0
    3.8594    1.8392   -0.9560 O   0  0  0  0  0  0  0  0  0  0  0  0
    4.7300    2.2337   -0.6980 H   0  0  0  0  0  0  0  0  0  0  0  0
  1  2  1  0
  2  3  1  0
  4  3  1  1
  4  5  1  0
  4  6  2  0
  7  8  1  0
  8  9  1  0
  9 10  1  0
 10 11  1  0
 11 12  1  0
 11 13  1  0
 10 14  1  0
 14 15  1  0
 14 16  1  0
  1 17  1  0
  1 18  1  0
  1 19  1  0
  2 20  1  0
  2 21  1  0
  5 22  1  0
  5 23  1  0
  5 24  1  0
  8 25  1  0
  8 26  1  0
  9 27  1  0
  9 28  1  0
 10 29  1  0
 11 30  1  0
 12 31  1  0
 12 32  1  0
 12 33  1  0
 13 34  1  0
 13 35  1  0
 13 36  1  0
 14 37  1  0
 15 38  1  0
 15 39  1  0
 15 40  1  0
 16 41  1  0
 16 42  1  0
 16 43  1  0
 44 45  1  0
  4 44  1  0
  4  7  1  0
M  CHG  1  10   1
M  END
$$$$
