VX
     RDKit          3D

 45 44  0  0  0  0  0  0  0  0999 V2000
    5.0039   -0.8252   -1.0035 C   0  0  0  0  0  0  0  0  0  0  0  0
    3.5087   -0.5939   -1.0672 C   0  0  0  0  0  0  0  0  0  0  0  0
    3.0010   -0.1974    0.1990 O   0  0  0  0  0  0  0  0  0  0  0  0
    2.8347    1.3656    0.5723 P   0  0  0  0  0  0  0  0  0  0  0  0
    4.0397    2.1287    1.6410 C   0  0  0  0  0  0  0  0  0  0  0  0
    1.6895    2.1733    0.0355 O   0  0  0  0  0  0  0  0  0  0  0  0
    1.5378    0.7779    2.4544 S   0  0  0  0  0  0  0  0  0  0  0  0
    0.1495   -0.1693    1.7573 C   0  0  0  0  0  0  0  0  0  0  0  0
   -0.6629    0.6792    0.7758 C   0  0  0  0  0  0  0  0  0  0  0  0
   -2.0189    0.1074    0.3562 N   0  0  0  0  0  0  0  0  0  0  0  0
   -2.0875   -1.2922   -0.2560 C   0  0  0  0  0  0  0  0  0  0  0  0
   -0.9988   -1.4798   -1.3111 C   0  0  0  0  0  0  0  0  0  0  0  0
   -2.0932   -2.4138    0.7737 C   0  0  0  0  0  0  0  0  0  0  0  0
   -3.2356    0.4921    1.2183 C   0  0  0  0  0  0  0  0  0  0  0  0
   -3.6806    1.9091    0.8512 C   0  0  0  0  0  0  0  0  0  0  0  0
   -2.9796    0.3660    2.7131 C   0  0  0  0  0  0  0  0  0  0  0  0
    5.3322   -1.5067   -1.7977 H   0  0  0  0  0  0  0  0  0  0  0  0
    5.5388    0.1150   -1.1430 H   0  0  0  0  0  0  0  0  0  0  0  0
    5.3025   -1.2247   -0.0297 H   0  0  0  0  0  0  0  0  0  0  0  0
    3.2499    0.1266   -1.8453 H   0  0  0  0  0  0  0  0  0  0  0  0
    3.0151   -1.5391   -1.3182 H   0  0  0  0  0  0  0  0  0  0  0  0
    4.8015    2.6573    1.0639 H   0  0  0  0  0  0  0  0  0  0  0  0
    3.5664    2.8541    2.3083 H   0  0  0  0  0  0  0  0  0  0  0  0
    4.5325    1.3643    2.2572 H   0  0  0  0  0  0  0  0  0  0  0  0
    0.5670   -1.0486    1.2658 H   0  0  0  0  0  0  0  0  0  0  0  0
   -0.4518   -0.5132    2.6011 H   0  0  0  0  0  0  0  0  0  0  0  0
   -0.8616    1.6775    1.1908 H   0  0  0  0  0  0  0  0  0  0  0  0
   -0.1197    0.8191   -0.1647 H   0  0  0  0  0  0  0  0  0  0  0  0
   -2.1878    0.6726   -0.4868 H   0  0  0  0  0  0  0  0  0  0  0  0
   -3.0523   -1.3164   -0.7865 H   0  0  0  0  0  0  0  0  0  0  0  0
   -1.0291   -0.6865   -2.0654 H   0  0  0  0  0  0  0  0  0  0  0  0
   -1.1447   -2.4292   -1.8353 H   0  0  0  0  0  0  0  0  0  0  0  0
    0.0061   -1.5058   -0.8759 H   0  0  0  0  0  0  0  0  0  0  0  0
   -2.9329   -2.3209    1.4723 H   0  0  0  0  0  0  0  0  0  0  0  0
   -1.1666   -2.4805    1.3483 H   0  0  0  0  0  0  0  0  0  0  0  0
   -2.2210   -3.3713    0.2580 H   0  0  0  0  0  0  0  0  0  0  0  0
   -4.0467   -0.1939    0.9322 H   0  0  0  0  0  0  0  0  0  0  0  0
   -4.5976    2.1705    1.3921 H   0  0  0  0  0  0  0  0  0  0  0  0
   -3.8966    1.9841   -0.2221 H   0  0  0  0  0  0  0  0  0  0  0  0
   -2.9208    2.6559    1.1019 H   0  0  0  0  0  0  0  0  0  0  0  0
   -2.2210    1.0682    3.0692 H   0  0  0  0  0  0  0  0  0  0  0  0
   -2.6756   -0.6444    2.9929 H   0  0  0  0  0  0  0  0  0  0  0  0
   -3.9004    0.5853    3.2674 H   0  0  0  0  0  0  0  0  0  0  0  0
    3.8788    1.8387   -0.9429 O   0  0  0  0  0  0  0  0  0  0  0  0
    4.7494    2.2332   -0.6849 H   0  0  0  0  0  0  0  0  0  0  0  0
  1  2  1  0
  2  3  1  0
  4  3  1  1
  4  5  1  0
  4  6  2  0
  7  8  1  0
  8  9  1  0
  9 10  1  0
 10 11  1  0
 11 12  1  0
 11 13  1  0
 10 14  1  0
 14 15  1  0
 14 16  1  0
  1 17  1  0
  1 18  1  0
  1 19  1  0
  2 20  1  0
  2 21  1  0
  5 22  1  0
  5 23  1  0
  5 24  1  0
  8 25  1  0
  8 26  1  0
  9 27  1  0
  9 28  1  0
 10 29  1  0
 11 30  1  0
 12 31  1  0
 12 32  1  0
 12 33  1  0
 13 34  1  0
 13 35  1  0
 13 36  1  0
 14 37  1  0
 15 38  1  0
 15 39  1  0
 15 40  1  0
 16 41  1  0
 16 42  1  0
 16 43  1  0
 44 45  1  0
  4 44  1  0
  4  7  1  0
M  CHG  1  10   1
M  END
$$$$
