VX
     RDKit          3D

 45 44  0  0  0  0  0  0  0  0999 V2000
    3.3233   -2.4955    0.7229 C   0  0  0  0  0  0  0  0  0  0  0  0
    3.7365   -1.0701    1.0256 C   0  0  0  0  0  0  0  0  0  0  0  0
    2.9914   -0.1970    0.1924 O   0  0  0  0  0  0  0  0  0  0  0  0
    2.8424    1.3638    0.5771 P   0  0  0  0  0  0  0  0  0  0  0  0
    4.0415    2.1364    1.6446 C   0  0  0  0  0  0  0  0  0  0  0  0
    1.6897    2.1669    0.0336 O   0  0  0  0  0  0  0  0  0  0  0  0
    1.5455    0.7761    2.4592 S   0  0  0  0  0  0  0  0  0  0  0  0
   -0.0786    0.4651    1.6935 C   0  0  0  0  0  0  0  0  0  0  0  0
   -0.8465    1.7792    1.5130 C   0  0  0  0  0  0  0  0  0  0  0  0
   -2.0355    1.7182    0.5513 N   0  0  0  0  0  0  0  0  0  0  0  0
   -3.3984    1.3226    1.1215 C   0  0  0  0  0  0  0  0  0  0  0  0
   -3.3355    0.0908    2.0141 C   0  0  0  0  0  0  0  0  0  0  0  0
   -3.9932    2.5151    1.8743 C   0  0  0  0  0  0  0  0  0  0  0  0
   -1.6896    1.2295   -0.8661 C   0  0  0  0  0  0  0  0  0  0  0  0
   -2.0218   -0.2428   -1.0862 C   0  0  0  0  0  0  0  0  0  0  0  0
   -2.4148    2.1118   -1.8850 C   0  0  0  0  0  0  0  0  0  0  0  0
    3.4956   -2.7318   -0.3324 H   0  0  0  0  0  0  0  0  0  0  0  0
    3.8837   -3.2038    1.3394 H   0  0  0  0  0  0  0  0  0  0  0  0
    2.2532   -2.6338    0.9096 H   0  0  0  0  0  0  0  0  0  0  0  0
    3.5525   -0.8430    2.0795 H   0  0  0  0  0  0  0  0  0  0  0  0
    4.8020   -0.9359    0.8158 H   0  0  0  0  0  0  0  0  0  0  0  0
    4.4147    1.4386    2.3992 H   0  0  0  0  0  0  0  0  0  0  0  0
    4.8918    2.5028    1.0626 H   0  0  0  0  0  0  0  0  0  0  0  0
    3.5929    2.9871    2.1656 H   0  0  0  0  0  0  0  0  0  0  0  0
   -0.6247   -0.2267    2.3377 H   0  0  0  0  0  0  0  0  0  0  0  0
    0.1165   -0.0388    0.7465 H   0  0  0  0  0  0  0  0  0  0  0  0
   -0.2126    2.5761    1.1141 H   0  0  0  0  0  0  0  0  0  0  0  0
   -1.2276    2.1394    2.4745 H   0  0  0  0  0  0  0  0  0  0  0  0
   -2.1601    2.7246    0.3791 H   0  0  0  0  0  0  0  0  0  0  0  0
   -4.0504    1.1194    0.2661 H   0  0  0  0  0  0  0  0  0  0  0  0
   -4.3493   -0.2189    2.2928 H   0  0  0  0  0  0  0  0  0  0  0  0
   -2.7985    0.2890    2.9470 H   0  0  0  0  0  0  0  0  0  0  0  0
   -2.8669   -0.7602    1.5154 H   0  0  0  0  0  0  0  0  0  0  0  0
   -5.0021    2.2767    2.2286 H   0  0  0  0  0  0  0  0  0  0  0  0
   -4.0733    3.3924    1.2232 H   0  0  0  0  0  0  0  0  0  0  0  0
   -3.3932    2.7920    2.7466 H   0  0  0  0  0  0  0  0  0  0  0  0
   -0.6138    1.3873   -0.9947 H   0  0  0  0  0  0  0  0  0  0  0  0
   -1.6638   -0.5602   -2.0724 H   0  0  0  0  0  0  0  0  0  0  0  0
   -1.5463   -0.8940   -0.3502 H   0  0  0  0  0  0  0  0  0  0  0  0
   -3.0994   -0.4328   -1.0644 H   0  0  0  0  0  0  0  0  0  0  0  0
   -3.5027    2.0319   -1.7957 H   0  0  0  0  0  0  0  0  0  0  0  0
   -2.1401    3.1649   -1.7606 H   0  0  0  0  0  0  0  0  0  0  0  0
   -2.1418    1.8201   -2.9050 H   0  0  0  0  0  0  0  0  0  0  0  0
    3.8865    1.8369   -0.9381 O   0  0  0  0  0  0  0  0  0  0  0  0
    4.7571    2.2314   -0.6801 H   0  0  0  0  0  0  0  0  0  0  0  0
  1  2  1  0
  2  3  1  0
  4  3  1  1
  4  5  1  0
  4  6  2  0
  7  8  1  0
  8  9  1  0
  9 10  1  0
 10 11  1  0
 11 12  1  0
 11 13  1  0
 10 14  1  0
 14 15  1  0
 14 16  1  0
  1 17  1  0
  1 18  1  0
  1 19  1  0
  2 20  1  0
  2 21  1  0
  5 22  1  0
  5 23  1  0
  5 24  1  0
  8 25  1  0
  8 26  1  0
  9 27  1  0
  9 28  1  0
 10 29  1  0
 11 30  1  0
 12 31  1  0
 12 32  1  0
 12 33  1  0
 13 34  1  0
 13 35  1  0
 13 36  1  0
 14 37  1  0
 15 38  1  0
 15 39  1  0
 15 40  1  0
 16 41  1  0
 16 42  1  0
 16 43  1  0
 44 45  1  0
  4 44  1  0
  4  7  1  0
M  CHG  1  10   1
M  END
$$$$
