VX
     RDKit          3D

 45 44  0  0  0  0  0  0  0  0999 V2000
    4.0025   -1.8874   -1.1693 C   0  0  0  0  0  0  0  0  0  0  0  0
    3.3305   -0.5287   -1.1460 C   0  0  0  0  0  0  0  0  0  0  0  0
    3.0081   -0.1991    0.2033 O   0  0  0  0  0  0  0  0  0  0  0  0
    2.8315    1.3663    0.5704 P   0  0  0  0  0  0  0  0  0  0  0  0
    4.0389    2.1233    1.6388 C   0  0  0  0  0  0  0  0  0  0  0  0
    1.6865    2.1796    0.0354 O   0  0  0  0  0  0  0  0  0  0  0  0
    1.5346    0.7786    2.4525 S   0  0  0  0  0  0  0  0  0  0  0  0
   -0.0221    0.2712    1.6406 C   0  0  0  0  0  0  0  0  0  0  0  0
   -1.0282   -0.2913    2.6512 C   0  0  0  0  0  0  0  0  0  0  0  0
   -1.1643    0.6217    3.8878 N   0  0  0  0  0  0  0  0  0  0  0  0
   -1.3503   -0.1977    5.1699 C   0  0  0  0  0  0  0  0  0  0  0  0
   -2.6170   -1.0501    5.1724 C   0  0  0  0  0  0  0  0  0  0  0  0
   -1.2256    0.6598    6.4254 C   0  0  0  0  0  0  0  0  0  0  0  0
   -1.9912    1.8808    3.5895 C   0  0  0  0  0  0  0  0  0  0  0  0
   -3.4833    1.6962    3.8002 C   0  0  0  0  0  0  0  0  0  0  0  0
   -1.4372    3.0909    4.3349 C   0  0  0  0  0  0  0  0  0  0  0  0
    3.4015   -2.6312   -0.6193 H   0  0  0  0  0  0  0  0  0  0  0  0
    4.1507   -2.2265   -2.2003 H   0  0  0  0  0  0  0  0  0  0  0  0
    4.9823   -1.8371   -0.6727 H   0  0  0  0  0  0  0  0  0  0  0  0
    2.4002   -0.5556   -1.7263 H   0  0  0  0  0  0  0  0  0  0  0  0
    3.9970    0.2285   -1.5788 H   0  0  0  0  0  0  0  0  0  0  0  0
    4.4054    1.4092    2.3816 H   0  0  0  0  0  0  0  0  0  0  0  0
    3.6003    2.9730    2.1737 H   0  0  0  0  0  0  0  0  0  0  0  0
    4.8943    2.4851    1.0619 H   0  0  0  0  0  0  0  0  0  0  0  0
    0.1981   -0.4812    0.8814 H   0  0  0  0  0  0  0  0  0  0  0  0
   -0.4387    1.1437    1.1247 H   0  0  0  0  0  0  0  0  0  0  0  0
   -2.0249   -0.4123    2.2105 H   0  0  0  0  0  0  0  0  0  0  0  0
   -0.6765   -1.2712    3.0001 H   0  0  0  0  0  0  0  0  0  0  0  0
   -0.1972    0.9774    3.9883 H   0  0  0  0  0  0  0  0  0  0  0  0
   -0.4905   -0.8848    5.1781 H   0  0  0  0  0  0  0  0  0  0  0  0
   -3.5275   -0.4615    5.3096 H   0  0  0  0  0  0  0  0  0  0  0  0
   -2.5776   -1.7504    6.0099 H   0  0  0  0  0  0  0  0  0  0  0  0
   -2.7234   -1.6468    4.2622 H   0  0  0  0  0  0  0  0  0  0  0  0
   -0.3396    1.2979    6.3838 H   0  0  0  0  0  0  0  0  0  0  0  0
   -2.1127    1.2801    6.5916 H   0  0  0  0  0  0  0  0  0  0  0  0
   -1.1207    0.0193    7.3085 H   0  0  0  0  0  0  0  0  0  0  0  0
   -1.8379    2.0853    2.5261 H   0  0  0  0  0  0  0  0  0  0  0  0
   -3.8491    0.7804    3.3238 H   0  0  0  0  0  0  0  0  0  0  0  0
   -3.7480    1.6858    4.8611 H   0  0  0  0  0  0  0  0  0  0  0  0
   -4.0360    2.5324    3.3473 H   0  0  0  0  0  0  0  0  0  0  0  0
   -0.3530    3.1807    4.2036 H   0  0  0  0  0  0  0  0  0  0  0  0
   -1.6532    3.0647    5.4013 H   0  0  0  0  0  0  0  0  0  0  0  0
   -1.8924    4.0093    3.9493 H   0  0  0  0  0  0  0  0  0  0  0  0
    3.8756    1.8394   -0.9448 O   0  0  0  0  0  0  0  0  0  0  0  0
    4.7462    2.2339   -0.6868 H   0  0  0  0  0  0  0  0  0  0  0  0
  1  2  1  0
  2  3  1  0
  4  3  1  1
  4  5  1  0
  4  6  2  0
  7  8  1  0
  8  9  1  0
  9 10  1  0
 10 11  1  0
 11 12  1  0
 11 13  1  0
 10 14  1  0
 14 15  1  0
 14 16  1  0
  1 17  1  0
  1 18  1  0
  1 19  1  0
  2 20  1  0
  2 21  1  0
  5 22  1  0
  5 23  1  0
  5 24  1  0
  8 25  1  0
  8 26  1  0
  9 27  1  0
  9 28  1  0
 10 29  1  0
 11 30  1  0
 12 31  1  0
 12 32  1  0
 12 33  1  0
 13 34  1  0
 13 35  1  0
 13 36  1  0
 14 37  1  0
 15 38  1  0
 15 39  1  0
 15 40  1  0
 16 41  1  0
 16 42  1  0
 16 43  1  0
 44 45  1  0
  4 44  1  0
  4  7  1  0
M  CHG  1  10   1
M  END
$$$$
