VX
     RDKit          3D

 45 44  0  0  0  0  0  0  0  0999 V2000
    4.8254   -1.7192    0.4152 C   0  0  0  0  0  0  0  0  0  0  0  0
    3.6227   -1.0997    1.0958 C   0  0  0  0  0  0  0  0  0  0  0  0
    2.9992   -0.1964    0.1980 O   0  0  0  0  0  0  0  0  0  0  0  0
    2.8368    1.3642    0.5734 P   0  0  0  0  0  0  0  0  0  0  0  0
    4.0412    2.1299    1.6424 C   0  0  0  0  0  0  0  0  0  0  0  0
    1.6877    2.1724    0.0340 O   0  0  0  0  0  0  0  0  0  0  0  0
    1.5399    0.7765    2.4555 S   0  0  0  0  0  0  0  0  0  0  0  0
    0.0980    1.8841    2.3234 C   0  0  0  0  0  0  0  0  0  0  0  0
   -0.8203    1.5706    1.1301 C   0  0  0  0  0  0  0  0  0  0  0  0
   -2.0172    0.6517    1.4659 N   0  0  0  0  0  0  0  0  0  0  0  0
   -3.0221    1.2087    2.4943 C   0  0  0  0  0  0  0  0  0  0  0  0
   -3.2824    2.7003    2.2565 C   0  0  0  0  0  0  0  0  0  0  0  0
   -4.3591    0.4735    2.3814 C   0  0  0  0  0  0  0  0  0  0  0  0
   -1.5624   -0.8162    1.6140 C   0  0  0  0  0  0  0  0  0  0  0  0
   -1.4774   -1.2804    3.0633 C   0  0  0  0  0  0  0  0  0  0  0  0
   -2.4430   -1.7252    0.7571 C   0  0  0  0  0  0  0  0  0  0  0  0
    5.5509   -0.9485    0.1353 H   0  0  0  0  0  0  0  0  0  0  0  0
    5.3158   -2.4427    1.0723 H   0  0  0  0  0  0  0  0  0  0  0  0
    4.5276   -2.2263   -0.5086 H   0  0  0  0  0  0  0  0  0  0  0  0
    3.9230   -0.6005    2.0216 H   0  0  0  0  0  0  0  0  0  0  0  0
    2.8950   -1.8752    1.3533 H   0  0  0  0  0  0  0  0  0  0  0  0
    3.5938    2.9784    2.1681 H   0  0  0  0  0  0  0  0  0  0  0  0
    4.8880    2.4999    1.0576 H   0  0  0  0  0  0  0  0  0  0  0  0
    4.4206    1.4321    2.3932 H   0  0  0  0  0  0  0  0  0  0  0  0
    0.4946    2.8987    2.2092 H   0  0  0  0  0  0  0  0  0  0  0  0
   -0.4405    1.8619    3.2738 H   0  0  0  0  0  0  0  0  0  0  0  0
   -1.2531    2.4947    0.7344 H   0  0  0  0  0  0  0  0  0  0  0  0
   -0.3084    1.0960    0.2876 H   0  0  0  0  0  0  0  0  0  0  0  0
   -2.5397    0.6685    0.5796 H   0  0  0  0  0  0  0  0  0  0  0  0
   -2.5905    1.0730    3.4902 H   0  0  0  0  0  0  0  0  0  0  0  0
   -4.0756    3.0634    2.9199 H   0  0  0  0  0  0  0  0  0  0  0  0
   -3.5969    2.8945    1.2251 H   0  0  0  0  0  0  0  0  0  0  0  0
   -2.4000    3.3088    2.4745 H   0  0  0  0  0  0  0  0  0  0  0  0
   -4.7371    0.4820    1.3534 H   0  0  0  0  0  0  0  0  0  0  0  0
   -5.1153    0.9491    3.0166 H   0  0  0  0  0  0  0  0  0  0  0  0
   -4.2926   -0.5626    2.7166 H   0  0  0  0  0  0  0  0  0  0  0  0
   -0.5603   -0.8735    1.1762 H   0  0  0  0  0  0  0  0  0  0  0  0
   -2.4606   -1.4142    3.5210 H   0  0  0  0  0  0  0  0  0  0  0  0
   -0.9738   -2.2527    3.1117 H   0  0  0  0  0  0  0  0  0  0  0  0
   -0.9055   -0.5883    3.6860 H   0  0  0  0  0  0  0  0  0  0  0  0
   -3.4721   -1.7829    1.1162 H   0  0  0  0  0  0  0  0  0  0  0  0
   -2.4646   -1.3837   -0.2834 H   0  0  0  0  0  0  0  0  0  0  0  0
   -2.0425   -2.7452    0.7577 H   0  0  0  0  0  0  0  0  0  0  0  0
    3.8809    1.8373   -0.9418 O   0  0  0  0  0  0  0  0  0  0  0  0
    4.7515    2.2318   -0.6838 H   0  0  0  0  0  0  0  0  0  0  0  0
  1  2  1  0
  2  3  1  0
  4  3  1  1
  4  5  1  0
  4  6  2  0
  7  8  1  0
  8  9  1  0
  9 10  1  0
 10 11  1  0
 11 12  1  0
 11 13  1  0
 10 14  1  0
 14 15  1  0
 14 16  1  0
  1 17  1  0
  1 18  1  0
  1 19  1  0
  2 20  1  0
  2 21  1  0
  5 22  1  0
  5 23  1  0
  5 24  1  0
  8 25  1  0
  8 26  1  0
  9 27  1  0
  9 28  1  0
 10 29  1  0
 11 30  1  0
 12 31  1  0
 12 32  1  0
 12 33  1  0
 13 34  1  0
 13 35  1  0
 13 36  1  0
 14 37  1  0
 15 38  1  0
 15 39  1  0
 15 40  1  0
 16 41  1  0
 16 42  1  0
 16 43  1  0
 44 45  1  0
  4 44  1  0
  4  7  1  0
M  CHG  1  10   1
M  END
$$$$
