VX
     RDKit          3D

 45 44  0  0  0  0  0  0  0  0999 V2000
    5.1333    1.1755    1.1789 C   0  0  0  0  0  0  0  0  0  0  0  0
    3.6418    1.3249    0.9465 C   0  0  0  0  0  0  0  0  0  0  0  0
    2.9999    0.0587    0.9869 O   0  0  0  0  0  0  0  0  0  0  0  0
    2.6838   -0.7305   -0.3857 P   0  0  0  0  0  0  0  0  0  0  0  0
    3.5472   -2.2635   -0.6719 C   0  0  0  0  0  0  0  0  0  0  0  0
    1.7033   -0.2180   -1.4045 O   0  0  0  0  0  0  0  0  0  0  0  0
    0.9471   -1.9099    0.6924 S   0  0  0  0  0  0  0  0  0  0  0  0
   -0.1001   -0.5964    1.3777 C   0  0  0  0  0  0  0  0  0  0  0  0
   -1.5996   -0.9241    1.3897 C   0  0  0  0  0  0  0  0  0  0  0  0
   -2.3597   -0.6982    0.0634 N   0  0  0  0  0  0  0  0  0  0  0  0
   -2.0852   -1.7211   -1.0585 C   0  0  0  0  0  0  0  0  0  0  0  0
   -2.2227   -3.1527   -0.5183 C   0  0  0  0  0  0  0  0  0  0  0  0
   -3.1206   -1.5853   -2.1823 C   0  0  0  0  0  0  0  0  0  0  0  0
   -2.4006    0.8051   -0.2976 C   0  0  0  0  0  0  0  0  0  0  0  0
   -1.4153    1.2165   -1.3823 C   0  0  0  0  0  0  0  0  0  0  0  0
   -3.8349    1.2329   -0.6083 C   0  0  0  0  0  0  0  0  0  0  0  0
    5.6005    2.1560    1.3159 H   0  0  0  0  0  0  0  0  0  0  0  0
    5.6114    0.6913    0.3260 H   0  0  0  0  0  0  0  0  0  0  0  0
    5.3350    0.5576    2.0606 H   0  0  0  0  0  0  0  0  0  0  0  0
    3.4390    1.8432    0.0048 H   0  0  0  0  0  0  0  0  0  0  0  0
    3.2093    1.9279    1.7516 H   0  0  0  0  0  0  0  0  0  0  0  0
    3.8833   -2.7086    0.2688 H   0  0  0  0  0  0  0  0  0  0  0  0
    4.4139   -2.1034   -1.3151 H   0  0  0  0  0  0  0  0  0  0  0  0
    2.8918   -2.9808   -1.1764 H   0  0  0  0  0  0  0  0  0  0  0  0
    0.2312   -0.4597    2.4136 H   0  0  0  0  0  0  0  0  0  0  0  0
    0.1028    0.3471    0.8675 H   0  0  0  0  0  0  0  0  0  0  0  0
   -1.8110   -1.9410    1.7351 H   0  0  0  0  0  0  0  0  0  0  0  0
   -2.0985   -0.2614    2.1061 H   0  0  0  0  0  0  0  0  0  0  0  0
   -3.3264   -0.9171    0.3320 H   0  0  0  0  0  0  0  0  0  0  0  0
   -1.0773   -1.5373   -1.4384 H   0  0  0  0  0  0  0  0  0  0  0  0
   -3.1891   -3.3024   -0.0193 H   0  0  0  0  0  0  0  0  0  0  0  0
   -2.1542   -3.8811   -1.3366 H   0  0  0  0  0  0  0  0  0  0  0  0
   -1.4380   -3.4190    0.1917 H   0  0  0  0  0  0  0  0  0  0  0  0
   -3.0425   -0.6440   -2.7259 H   0  0  0  0  0  0  0  0  0  0  0  0
   -2.9800   -2.3755   -2.9302 H   0  0  0  0  0  0  0  0  0  0  0  0
   -4.1430   -1.6755   -1.7964 H   0  0  0  0  0  0  0  0  0  0  0  0
   -2.1253    1.3378    0.6187 H   0  0  0  0  0  0  0  0  0  0  0  0
   -1.7121    0.8902   -2.3804 H   0  0  0  0  0  0  0  0  0  0  0  0
   -0.4105    0.8427   -1.1904 H   0  0  0  0  0  0  0  0  0  0  0  0
   -1.3534    2.3109   -1.4242 H   0  0  0  0  0  0  0  0  0  0  0  0
   -4.5165    0.9424    0.1986 H   0  0  0  0  0  0  0  0  0  0  0  0
   -4.2170    0.8154   -1.5435 H   0  0  0  0  0  0  0  0  0  0  0  0
   -3.8904    2.3252   -0.6957 H   0  0  0  0  0  0  0  0  0  0  0  0
    4.0820    0.2190   -1.2537 O   0  0  0  0  0  0  0  0  0  0  0  0
    4.7018    0.6400   -0.6066 H   0  0  0  0  0  0  0  0  0  0  0  0
  1  2  1  0
  2  3  1  0
  4  3  1  1
  4  5  1  0
  4  6  2  0
  7  8  1  0
  8  9  1  0
  9 10  1  0
 10 11  1  0
 11 12  1  0
 11 13  1  0
 10 14  1  0
 14 15  1  0
 14 16  1  0
  1 17  1  0
  1 18  1  0
  1 19  1  0
  2 20  1  0
  2 21  1  0
  5 22  1  0
  5 23  1  0
  5 24  1  0
  8 25  1  0
  8 26  1  0
  9 27  1  0
  9 28  1  0
 10 29  1  0
 11 30  1  0
 12 31  1  0
 12 32  1  0
 12 33  1  0
 13 34  1  0
 13 35  1  0
 13 36  1  0
 14 37  1  0
 15 38  1  0
 15 39  1  0
 15 40  1  0
 16 41  1  0
 16 42  1  0
 16 43  1  0
 44 45  1  0
  4 44  1  0
  4  7  1  0
M  CHG  1  10   1
M  END
$$$$
