VX
     RDKit          3D

 45 44  0  0  0  0  0  0  0  0999 V2000
    4.7320   -0.1050    2.6034 C   0  0  0  0  0  0  0  0  0  0  0  0
    3.3723   -0.6081    2.1649 C   0  0  0  0  0  0  0  0  0  0  0  0
    2.9877    0.0726    0.9825 O   0  0  0  0  0  0  0  0  0  0  0  0
    2.6909   -0.7378   -0.3822 P   0  0  0  0  0  0  0  0  0  0  0  0
    3.5473   -2.2733   -0.6825 C   0  0  0  0  0  0  0  0  0  0  0  0
    1.7082   -0.2148   -1.3931 O   0  0  0  0  0  0  0  0  0  0  0  0
    0.9542   -1.9172    0.6959 S   0  0  0  0  0  0  0  0  0  0  0  0
   -0.4620   -0.8284    0.3769 C   0  0  0  0  0  0  0  0  0  0  0  0
   -1.7410   -1.3815    1.0073 C   0  0  0  0  0  0  0  0  0  0  0  0
   -2.9448   -0.4873    0.6681 N   0  0  0  0  0  0  0  0  0  0  0  0
   -4.1029   -1.1885   -0.0658 C   0  0  0  0  0  0  0  0  0  0  0  0
   -3.7294   -1.3330   -1.5417 C   0  0  0  0  0  0  0  0  0  0  0  0
   -4.4796   -2.5394    0.5403 C   0  0  0  0  0  0  0  0  0  0  0  0
   -3.4094    0.4809    1.7684 C   0  0  0  0  0  0  0  0  0  0  0  0
   -2.2594    1.3891    2.1977 C   0  0  0  0  0  0  0  0  0  0  0  0
   -4.0391   -0.2303    2.9589 C   0  0  0  0  0  0  0  0  0  0  0  0
    4.7096    0.9779    2.7636 H   0  0  0  0  0  0  0  0  0  0  0  0
    5.4831   -0.2970    1.8305 H   0  0  0  0  0  0  0  0  0  0  0  0
    5.0477   -0.5923    3.5302 H   0  0  0  0  0  0  0  0  0  0  0  0
    2.6256   -0.3935    2.9355 H   0  0  0  0  0  0  0  0  0  0  0  0
    3.3963   -1.6912    2.0137 H   0  0  0  0  0  0  0  0  0  0  0  0
    2.9571   -2.9107   -1.3474 H   0  0  0  0  0  0  0  0  0  0  0  0
    3.7257   -2.8277    0.2424 H   0  0  0  0  0  0  0  0  0  0  0  0
    4.5120   -2.0832   -1.1613 H   0  0  0  0  0  0  0  0  0  0  0  0
   -0.2224    0.1638    0.7663 H   0  0  0  0  0  0  0  0  0  0  0  0
   -0.5931   -0.7422   -0.7066 H   0  0  0  0  0  0  0  0  0  0  0  0
   -1.6661   -1.4563    2.0953 H   0  0  0  0  0  0  0  0  0  0  0  0
   -1.9343   -2.3781    0.6056 H   0  0  0  0  0  0  0  0  0  0  0  0
   -2.5925    0.1648   -0.0463 H   0  0  0  0  0  0  0  0  0  0  0  0
   -4.9607   -0.5100    0.0032 H   0  0  0  0  0  0  0  0  0  0  0  0
   -4.5559   -1.7818   -2.1030 H   0  0  0  0  0  0  0  0  0  0  0  0
   -2.8481   -1.9684   -1.6777 H   0  0  0  0  0  0  0  0  0  0  0  0
   -3.5166   -0.3573   -1.9915 H   0  0  0  0  0  0  0  0  0  0  0  0
   -3.7882   -3.3350    0.2442 H   0  0  0  0  0  0  0  0  0  0  0  0
   -4.5240   -2.5246    1.6300 H   0  0  0  0  0  0  0  0  0  0  0  0
   -5.4686   -2.8404    0.1760 H   0  0  0  0  0  0  0  0  0  0  0  0
   -4.1666    1.1174    1.2939 H   0  0  0  0  0  0  0  0  0  0  0  0
   -1.8065    1.8890    1.3353 H   0  0  0  0  0  0  0  0  0  0  0  0
   -1.4796    0.8405    2.7349 H   0  0  0  0  0  0  0  0  0  0  0  0
   -2.6268    2.1715    2.8710 H   0  0  0  0  0  0  0  0  0  0  0  0
   -4.2570    0.4875    3.7579 H   0  0  0  0  0  0  0  0  0  0  0  0
   -3.3907   -1.0024    3.3818 H   0  0  0  0  0  0  0  0  0  0  0  0
   -4.9951   -0.6859    2.6867 H   0  0  0  0  0  0  0  0  0  0  0  0
    4.0891    0.2117   -1.2502 O   0  0  0  0  0  0  0  0  0  0  0  0
    4.7089    0.6327   -0.6031 H   0  0  0  0  0  0  0  0  0  0  0  0
  1  2  1  0
  2  3  1  0
  4  3  1  1
  4  5  1  0
  4  6  2  0
  7  8  1  0
  8  9  1  0
  9 10  1  0
 10 11  1  0
 11 12  1  0
 11 13  1  0
 10 14  1  0
 14 15  1  0
 14 16  1  0
  1 17  1  0
  1 18  1  0
  1 19  1  0
  2 20  1  0
  2 21  1  0
  5 22  1  0
  5 23  1  0
  5 24  1  0
  8 25  1  0
  8 26  1  0
  9 27  1  0
  9 28  1  0
 10 29  1  0
 11 30  1  0
 12 31  1  0
 12 32  1  0
 12 33  1  0
 13 34  1  0
 13 35  1  0
 13 36  1  0
 14 37  1  0
 15 38  1  0
 15 39  1  0
 15 40  1  0
 16 41  1  0
 16 42  1  0
 16 43  1  0
 44 45  1  0
  4 44  1  0
  4  7  1  0
M  CHG  1  10   1
M  END
$$$$
