VX
     RDKit          3D

 45 44  0  0  0  0  0  0  0  0999 V2000
    3.7082   -2.0307   -1.1464 C   0  0  0  0  0  0  0  0  0  0  0  0
    3.4899   -0.5333   -1.0841 C   0  0  0  0  0  0  0  0  0  0  0  0
    3.0208   -0.1970    0.2127 O   0  0  0  0  0  0  0  0  0  0  0  0
    2.8226    1.3661    0.5642 P   0  0  0  0  0  0  0  0  0  0  0  0
    4.0394    2.1124    1.6357 C   0  0  0  0  0  0  0  0  0  0  0  0
    1.6821    2.1886    0.0351 O   0  0  0  0  0  0  0  0  0  0  0  0
    1.5257    0.7784    2.4463 S   0  0  0  0  0  0  0  0  0  0  0  0
    0.4828    2.2415    2.7278 C   0  0  0  0  0  0  0  0  0  0  0  0
   -0.7614    1.9417    3.5730 C   0  0  0  0  0  0  0  0  0  0  0  0
   -2.0442    1.5667    2.7996 N   0  0  0  0  0  0  0  0  0  0  0  0
   -2.8972    2.7797    2.4012 C   0  0  0  0  0  0  0  0  0  0  0  0
   -4.3023    2.3774    1.9698 C   0  0  0  0  0  0  0  0  0  0  0  0
   -2.2361    3.7192    1.4026 C   0  0  0  0  0  0  0  0  0  0  0  0
   -1.9040    0.3236    1.9075 C   0  0  0  0  0  0  0  0  0  0  0  0
   -3.1042   -0.6113    2.0827 C   0  0  0  0  0  0  0  0  0  0  0  0
   -1.6433    0.6311    0.4426 C   0  0  0  0  0  0  0  0  0  0  0  0
    4.0672   -2.3322   -2.1345 H   0  0  0  0  0  0  0  0  0  0  0  0
    2.7776   -2.5657   -0.9301 H   0  0  0  0  0  0  0  0  0  0  0  0
    4.4386   -2.3454   -0.3938 H   0  0  0  0  0  0  0  0  0  0  0  0
    4.4276   -0.0079   -1.2870 H   0  0  0  0  0  0  0  0  0  0  0  0
    2.7447   -0.2307   -1.8262 H   0  0  0  0  0  0  0  0  0  0  0  0
    3.5891    2.9217    2.2176 H   0  0  0  0  0  0  0  0  0  0  0  0
    4.4470    1.3738    2.3318 H   0  0  0  0  0  0  0  0  0  0  0  0
    4.8663    2.5317    1.0565 H   0  0  0  0  0  0  0  0  0  0  0  0
    0.2235    2.6906    1.7711 H   0  0  0  0  0  0  0  0  0  0  0  0
    1.1096    2.9621    3.2635 H   0  0  0  0  0  0  0  0  0  0  0  0
   -0.5879    1.1285    4.2883 H   0  0  0  0  0  0  0  0  0  0  0  0
   -1.0225    2.8280    4.1627 H   0  0  0  0  0  0  0  0  0  0  0  0
   -2.6076    1.1929    3.5741 H   0  0  0  0  0  0  0  0  0  0  0  0
   -3.0201    3.3396    3.3379 H   0  0  0  0  0  0  0  0  0  0  0  0
   -4.7673    1.7075    2.6999 H   0  0  0  0  0  0  0  0  0  0  0  0
   -4.3161    1.9023    0.9862 H   0  0  0  0  0  0  0  0  0  0  0  0
   -4.9410    3.2655    1.8995 H   0  0  0  0  0  0  0  0  0  0  0  0
   -2.9158    4.5454    1.1616 H   0  0  0  0  0  0  0  0  0  0  0  0
   -1.3379    4.1808    1.8206 H   0  0  0  0  0  0  0  0  0  0  0  0
   -1.9791    3.2381    0.4587 H   0  0  0  0  0  0  0  0  0  0  0  0
   -1.0550   -0.2323    2.3129 H   0  0  0  0  0  0  0  0  0  0  0  0
   -2.8833   -1.5861    1.6324 H   0  0  0  0  0  0  0  0  0  0  0  0
   -3.3269   -0.7864    3.1404 H   0  0  0  0  0  0  0  0  0  0  0  0
   -4.0070   -0.2392    1.5946 H   0  0  0  0  0  0  0  0  0  0  0  0
   -2.5131    1.0716   -0.0511 H   0  0  0  0  0  0  0  0  0  0  0  0
   -0.7900    1.2957    0.3018 H   0  0  0  0  0  0  0  0  0  0  0  0
   -1.4143   -0.2960   -0.0959 H   0  0  0  0  0  0  0  0  0  0  0  0
    3.8667    1.8392   -0.9510 O   0  0  0  0  0  0  0  0  0  0  0  0
    4.7373    2.2337   -0.6930 H   0  0  0  0  0  0  0  0  0  0  0  0
  1  2  1  0
  2  3  1  0
  4  3  1  1
  4  5  1  0
  4  6  2  0
  7  8  1  0
  8  9  1  0
  9 10  1  0
 10 11  1  0
 11 12  1  0
 11 13  1  0
 10 14  1  0
 14 15  1  0
 14 16  1  0
  1 17  1  0
  1 18  1  0
  1 19  1  0
  2 20  1  0
  2 21  1  0
  5 22  1  0
  5 23  1  0
  5 24  1  0
  8 25  1  0
  8 26  1  0
  9 27  1  0
  9 28  1  0
 10 29  1  0
 11 30  1  0
 12 31  1  0
 12 32  1  0
 12 33  1  0
 13 34  1  0
 13 35  1  0
 13 36  1  0
 14 37  1  0
 15 38  1  0
 15 39  1  0
 15 40  1  0
 16 41  1  0
 16 42  1  0
 16 43  1  0
 44 45  1  0
  4 44  1  0
  4  7  1  0
M  CHG  1  10   1
M  END
$$$$
