VX
     RDKit          3D

 45 44  0  0  0  0  0  0  0  0999 V2000
    3.4393    0.3913    3.2950 C   0  0  0  0  0  0  0  0  0  0  0  0
    3.4951   -0.5698    2.1263 C   0  0  0  0  0  0  0  0  0  0  0  0
    2.9754    0.0873    0.9787 O   0  0  0  0  0  0  0  0  0  0  0  0
    2.6992   -0.7469   -0.3788 P   0  0  0  0  0  0  0  0  0  0  0  0
    3.5460   -2.2815   -0.6936 C   0  0  0  0  0  0  0  0  0  0  0  0
    1.7137   -0.2123   -1.3815 O   0  0  0  0  0  0  0  0  0  0  0  0
    0.9625   -1.9263    0.6993 S   0  0  0  0  0  0  0  0  0  0  0  0
   -0.5283   -1.0023    0.2088 C   0  0  0  0  0  0  0  0  0  0  0  0
   -0.4578    0.4668    0.6429 C   0  0  0  0  0  0  0  0  0  0  0  0
   -1.7936    1.2186    0.5038 N   0  0  0  0  0  0  0  0  0  0  0  0
   -1.7970    2.6259    1.1711 C   0  0  0  0  0  0  0  0  0  0  0  0
   -0.8763    2.7189    2.3881 C   0  0  0  0  0  0  0  0  0  0  0  0
   -3.2313    2.9478    1.6151 C   0  0  0  0  0  0  0  0  0  0  0  0
   -2.3626    1.3202   -0.9337 C   0  0  0  0  0  0  0  0  0  0  0  0
   -3.2374    0.1110   -1.2536 C   0  0  0  0  0  0  0  0  0  0  0  0
   -1.2852    1.5897   -1.9787 C   0  0  0  0  0  0  0  0  0  0  0  0
    4.0425    1.2852    3.0830 H   0  0  0  0  0  0  0  0  0  0  0  0
    2.4127    0.7369    3.4723 H   0  0  0  0  0  0  0  0  0  0  0  0
    3.8175   -0.0806    4.2062 H   0  0  0  0  0  0  0  0  0  0  0  0
    4.5321   -0.8667    1.9384 H   0  0  0  0  0  0  0  0  0  0  0  0
    2.9043   -1.4657    2.3459 H   0  0  0  0  0  0  0  0  0  0  0  0
    2.9707   -2.9055   -1.3806 H   0  0  0  0  0  0  0  0  0  0  0  0
    4.5187   -2.0829   -1.1490 H   0  0  0  0  0  0  0  0  0  0  0  0
    3.7029   -2.8519    0.2237 H   0  0  0  0  0  0  0  0  0  0  0  0
   -0.6202   -1.1012   -0.8729 H   0  0  0  0  0  0  0  0  0  0  0  0
   -1.3878   -1.4982    0.6731 H   0  0  0  0  0  0  0  0  0  0  0  0
   -0.2238    0.4672    1.7106 H   0  0  0  0  0  0  0  0  0  0  0  0
    0.2969    1.0539    0.1146 H   0  0  0  0  0  0  0  0  0  0  0  0
   -2.4680    0.6677    1.0500 H   0  0  0  0  0  0  0  0  0  0  0  0
   -1.4552    3.3368    0.4111 H   0  0  0  0  0  0  0  0  0  0  0  0
   -0.9687    3.7037    2.8590 H   0  0  0  0  0  0  0  0  0  0  0  0
    0.1745    2.6073    2.1083 H   0  0  0  0  0  0  0  0  0  0  0  0
   -1.1278    1.9704    3.1462 H   0  0  0  0  0  0  0  0  0  0  0  0
   -3.9424    2.9417    0.7843 H   0  0  0  0  0  0  0  0  0  0  0  0
   -3.2757    3.9459    2.0669 H   0  0  0  0  0  0  0  0  0  0  0  0
   -3.5862    2.2280    2.3614 H   0  0  0  0  0  0  0  0  0  0  0  0
   -3.0300    2.1874   -0.9396 H   0  0  0  0  0  0  0  0  0  0  0  0
   -3.9940   -0.0421   -0.4769 H   0  0  0  0  0  0  0  0  0  0  0  0
   -3.7704    0.2745   -2.1986 H   0  0  0  0  0  0  0  0  0  0  0  0
   -2.6726   -0.8138   -1.3704 H   0  0  0  0  0  0  0  0  0  0  0  0
   -1.7523    1.8147   -2.9456 H   0  0  0  0  0  0  0  0  0  0  0  0
   -0.6277    0.7331   -2.1400 H   0  0  0  0  0  0  0  0  0  0  0  0
   -0.6707    2.4544   -1.7045 H   0  0  0  0  0  0  0  0  0  0  0  0
    4.0974    0.2026   -1.2468 O   0  0  0  0  0  0  0  0  0  0  0  0
    4.7172    0.6236   -0.5997 H   0  0  0  0  0  0  0  0  0  0  0  0
  1  2  1  0
  2  3  1  0
  4  3  1  1
  4  5  1  0
  4  6  2  0
  7  8  1  0
  8  9  1  0
  9 10  1  0
 10 11  1  0
 11 12  1  0
 11 13  1  0
 10 14  1  0
 14 15  1  0
 14 16  1  0
  1 17  1  0
  1 18  1  0
  1 19  1  0
  2 20  1  0
  2 21  1  0
  5 22  1  0
  5 23  1  0
  5 24  1  0
  8 25  1  0
  8 26  1  0
  9 27  1  0
  9 28  1  0
 10 29  1  0
 11 30  1  0
 12 31  1  0
 12 32  1  0
 12 33  1  0
 13 34  1  0
 13 35  1  0
 13 36  1  0
 14 37  1  0
 15 38  1  0
 15 39  1  0
 15 40  1  0
 16 41  1  0
 16 42  1  0
 16 43  1  0
 44 45  1  0
  4 44  1  0
  4  7  1  0
M  CHG  1  10   1
M  END
$$$$
