VX
     RDKit          3D

 45 44  0  0  0  0  0  0  0  0999 V2000
    2.8974   -1.7291   -1.6185 C   0  0  0  0  0  0  0  0  0  0  0  0
    3.6419   -0.5513   -1.0151 C   0  0  0  0  0  0  0  0  0  0  0  0
    3.0014   -0.1938    0.2003 O   0  0  0  0  0  0  0  0  0  0  0  0
    2.8356    1.3656    0.5730 P   0  0  0  0  0  0  0  0  0  0  0  0
    4.0361    2.1260    1.6377 C   0  0  0  0  0  0  0  0  0  0  0  0
    1.6918    2.1723    0.0367 O   0  0  0  0  0  0  0  0  0  0  0  0
    1.5388    0.7779    2.4551 S   0  0  0  0  0  0  0  0  0  0  0  0
    0.2972   -0.3425    1.7260 C   0  0  0  0  0  0  0  0  0  0  0  0
   -0.7871    0.4130    0.9415 C   0  0  0  0  0  0  0  0  0  0  0  0
   -1.4919    1.4649    1.8196 N   0  0  0  0  0  0  0  0  0  0  0  0
   -1.3188    2.8935    1.2795 C   0  0  0  0  0  0  0  0  0  0  0  0
   -1.5060    3.9133    2.4016 C   0  0  0  0  0  0  0  0  0  0  0  0
   -2.2172    3.1797    0.0911 C   0  0  0  0  0  0  0  0  0  0  0  0
   -2.8801    1.0905    2.3431 C   0  0  0  0  0  0  0  0  0  0  0  0
   -3.8039    0.5219    1.2700 C   0  0  0  0  0  0  0  0  0  0  0  0
   -2.7396    0.0991    3.4957 C   0  0  0  0  0  0  0  0  0  0  0  0
    1.8404   -1.4778   -1.7920 H   0  0  0  0  0  0  0  0  0  0  0  0
    2.9158   -2.5844   -0.9413 H   0  0  0  0  0  0  0  0  0  0  0  0
    3.3454   -2.0297   -2.5694 H   0  0  0  0  0  0  0  0  0  0  0  0
    4.6808   -0.8325   -0.7916 H   0  0  0  0  0  0  0  0  0  0  0  0
    3.6511    0.2903   -1.7159 H   0  0  0  0  0  0  0  0  0  0  0  0
    4.8937    2.4907    1.0590 H   0  0  0  0  0  0  0  0  0  0  0  0
    4.3989    1.4164    2.3808 H   0  0  0  0  0  0  0  0  0  0  0  0
    3.5929    2.9819    2.1642 H   0  0  0  0  0  0  0  0  0  0  0  0
   -0.1522   -0.9230    2.5541 H   0  0  0  0  0  0  0  0  0  0  0  0
    0.7954   -1.0636    1.0633 H   0  0  0  0  0  0  0  0  0  0  0  0
   -0.3664    0.9178    0.0694 H   0  0  0  0  0  0  0  0  0  0  0  0
   -1.5319   -0.2933    0.5707 H   0  0  0  0  0  0  0  0  0  0  0  0
   -0.8993    1.4984    2.6611 H   0  0  0  0  0  0  0  0  0  0  0  0
   -0.2777    2.9626    0.9601 H   0  0  0  0  0  0  0  0  0  0  0  0
   -2.5357    3.9713    2.7555 H   0  0  0  0  0  0  0  0  0  0  0  0
   -0.8630    3.6858    3.2524 H   0  0  0  0  0  0  0  0  0  0  0  0
   -1.2361    4.9131    2.0510 H   0  0  0  0  0  0  0  0  0  0  0  0
   -1.9379    4.1370   -0.3667 H   0  0  0  0  0  0  0  0  0  0  0  0
   -3.2694    3.2625    0.3852 H   0  0  0  0  0  0  0  0  0  0  0  0
   -2.1255    2.4098   -0.6845 H   0  0  0  0  0  0  0  0  0  0  0  0
   -3.3213    2.0070    2.7454 H   0  0  0  0  0  0  0  0  0  0  0  0
   -3.5729   -0.5251    1.0409 H   0  0  0  0  0  0  0  0  0  0  0  0
   -4.8382    0.5382    1.6294 H   0  0  0  0  0  0  0  0  0  0  0  0
   -3.7797    1.0843    0.3387 H   0  0  0  0  0  0  0  0  0  0  0  0
   -2.3458   -0.8675    3.1554 H   0  0  0  0  0  0  0  0  0  0  0  0
   -2.0823    0.4854    4.2885 H   0  0  0  0  0  0  0  0  0  0  0  0
   -3.7205   -0.0961    3.9495 H   0  0  0  0  0  0  0  0  0  0  0  0
    3.8797    1.8388   -0.9423 O   0  0  0  0  0  0  0  0  0  0  0  0
    4.7502    2.2333   -0.6843 H   0  0  0  0  0  0  0  0  0  0  0  0
  1  2  1  0
  2  3  1  0
  4  3  1  1
  4  5  1  0
  4  6  2  0
  7  8  1  0
  8  9  1  0
  9 10  1  0
 10 11  1  0
 11 12  1  0
 11 13  1  0
 10 14  1  0
 14 15  1  0
 14 16  1  0
  1 17  1  0
  1 18  1  0
  1 19  1  0
  2 20  1  0
  2 21  1  0
  5 22  1  0
  5 23  1  0
  5 24  1  0
  8 25  1  0
  8 26  1  0
  9 27  1  0
  9 28  1  0
 10 29  1  0
 11 30  1  0
 12 31  1  0
 12 32  1  0
 12 33  1  0
 13 34  1  0
 13 35  1  0
 13 36  1  0
 14 37  1  0
 15 38  1  0
 15 39  1  0
 15 40  1  0
 16 41  1  0
 16 42  1  0
 16 43  1  0
 44 45  1  0
  4 44  1  0
  4  7  1  0
M  CHG  1  10   1
M  END
$$$$
