VX
     RDKit          3D

 45 44  0  0  0  0  0  0  0  0999 V2000
    4.7621   -0.0631    2.5648 C   0  0  0  0  0  0  0  0  0  0  0  0
    3.4008   -0.5879    2.1582 C   0  0  0  0  0  0  0  0  0  0  0  0
    2.9804    0.0808    0.9796 O   0  0  0  0  0  0  0  0  0  0  0  0
    2.6959   -0.7431   -0.3799 P   0  0  0  0  0  0  0  0  0  0  0  0
    3.5466   -2.2780   -0.6887 C   0  0  0  0  0  0  0  0  0  0  0  0
    1.7114   -0.2131   -1.3862 O   0  0  0  0  0  0  0  0  0  0  0  0
    0.9592   -1.9225    0.6982 S   0  0  0  0  0  0  0  0  0  0  0  0
   -0.2708   -0.6456    1.1035 C   0  0  0  0  0  0  0  0  0  0  0  0
   -0.7211    0.1551   -0.1251 C   0  0  0  0  0  0  0  0  0  0  0  0
   -2.0408    0.9236    0.1000 N   0  0  0  0  0  0  0  0  0  0  0  0
   -3.2903    0.0439    0.3083 C   0  0  0  0  0  0  0  0  0  0  0  0
   -3.2996   -1.1355   -0.6702 C   0  0  0  0  0  0  0  0  0  0  0  0
   -4.5609    0.8627    0.0757 C   0  0  0  0  0  0  0  0  0  0  0  0
   -1.8168    2.1170    1.0521 C   0  0  0  0  0  0  0  0  0  0  0  0
   -2.2740    1.8410    2.4796 C   0  0  0  0  0  0  0  0  0  0  0  0
   -2.4325    3.3847    0.4641 C   0  0  0  0  0  0  0  0  0  0  0  0
    4.7275    1.0204    2.7196 H   0  0  0  0  0  0  0  0  0  0  0  0
    5.1044   -0.5405    3.4872 H   0  0  0  0  0  0  0  0  0  0  0  0
    5.4994   -0.2484    1.7771 H   0  0  0  0  0  0  0  0  0  0  0  0
    2.6674   -0.3785    2.9430 H   0  0  0  0  0  0  0  0  0  0  0  0
    3.4352   -1.6715    2.0129 H   0  0  0  0  0  0  0  0  0  0  0  0
    3.7275   -2.8364    0.2331 H   0  0  0  0  0  0  0  0  0  0  0  0
    2.9526   -2.9117   -1.3536 H   0  0  0  0  0  0  0  0  0  0  0  0
    4.5098   -2.0889   -1.1709 H   0  0  0  0  0  0  0  0  0  0  0  0
   -1.1116   -1.1608    1.5744 H   0  0  0  0  0  0  0  0  0  0  0  0
    0.1696    0.0228    1.8497 H   0  0  0  0  0  0  0  0  0  0  0  0
    0.0129    0.9223   -0.3883 H   0  0  0  0  0  0  0  0  0  0  0  0
   -0.8690   -0.4691   -1.0112 H   0  0  0  0  0  0  0  0  0  0  0  0
   -2.1890    1.3497   -0.8258 H   0  0  0  0  0  0  0  0  0  0  0  0
   -3.2608   -0.3375    1.3333 H   0  0  0  0  0  0  0  0  0  0  0  0
   -3.1901   -0.7993   -1.7071 H   0  0  0  0  0  0  0  0  0  0  0  0
   -4.2423   -1.6897   -0.5974 H   0  0  0  0  0  0  0  0  0  0  0  0
   -2.5055   -1.8547   -0.4489 H   0  0  0  0  0  0  0  0  0  0  0  0
   -4.5381    1.3756   -0.8919 H   0  0  0  0  0  0  0  0  0  0  0  0
   -4.7226    1.6057    0.8585 H   0  0  0  0  0  0  0  0  0  0  0  0
   -5.4449    0.2148    0.0869 H   0  0  0  0  0  0  0  0  0  0  0  0
   -0.7337    2.2870    1.0784 H   0  0  0  0  0  0  0  0  0  0  0  0
   -1.9539    2.6579    3.1364 H   0  0  0  0  0  0  0  0  0  0  0  0
   -1.8387    0.9197    2.8760 H   0  0  0  0  0  0  0  0  0  0  0  0
   -3.3608    1.7723    2.5696 H   0  0  0  0  0  0  0  0  0  0  0  0
   -2.1460    4.2545    1.0660 H   0  0  0  0  0  0  0  0  0  0  0  0
   -3.5232    3.3575    0.4392 H   0  0  0  0  0  0  0  0  0  0  0  0
   -2.0726    3.5607   -0.5552 H   0  0  0  0  0  0  0  0  0  0  0  0
    4.0941    0.2064   -1.2479 O   0  0  0  0  0  0  0  0  0  0  0  0
    4.7139    0.6274   -0.6008 H   0  0  0  0  0  0  0  0  0  0  0  0
  1  2  1  0
  2  3  1  0
  4  3  1  1
  4  5  1  0
  4  6  2  0
  7  8  1  0
  8  9  1  0
  9 10  1  0
 10 11  1  0
 11 12  1  0
 11 13  1  0
 10 14  1  0
 14 15  1  0
 14 16  1  0
  1 17  1  0
  1 18  1  0
  1 19  1  0
  2 20  1  0
  2 21  1  0
  5 22  1  0
  5 23  1  0
  5 24  1  0
  8 25  1  0
  8 26  1  0
  9 27  1  0
  9 28  1  0
 10 29  1  0
 11 30  1  0
 12 31  1  0
 12 32  1  0
 12 33  1  0
 13 34  1  0
 13 35  1  0
 13 36  1  0
 14 37  1  0
 15 38  1  0
 15 39  1  0
 15 40  1  0
 16 41  1  0
 16 42  1  0
 16 43  1  0
 44 45  1  0
  4 44  1  0
  4  7  1  0
M  CHG  1  10   1
M  END
$$$$
