VX
     RDKit          3D

 45 44  0  0  0  0  0  0  0  0999 V2000
    2.9828    2.4520    1.1361 C   0  0  0  0  0  0  0  0  0  0  0  0
    3.8289    1.2127    0.9285 C   0  0  0  0  0  0  0  0  0  0  0  0
    2.9901    0.0692    0.9826 O   0  0  0  0  0  0  0  0  0  0  0  0
    2.6899   -0.7369   -0.3829 P   0  0  0  0  0  0  0  0  0  0  0  0
    3.5461   -2.2694   -0.6801 C   0  0  0  0  0  0  0  0  0  0  0  0
    1.7081   -0.2162   -1.3948 O   0  0  0  0  0  0  0  0  0  0  0  0
    0.9532   -1.9164    0.6952 S   0  0  0  0  0  0  0  0  0  0  0  0
   -0.0659   -0.5886    1.4179 C   0  0  0  0  0  0  0  0  0  0  0  0
   -0.9095    0.1776    0.3836 C   0  0  0  0  0  0  0  0  0  0  0  0
   -1.5740   -0.7597   -0.6522 N   0  0  0  0  0  0  0  0  0  0  0  0
   -1.3395   -0.2022   -2.0784 C   0  0  0  0  0  0  0  0  0  0  0  0
   -1.1232   -1.3261   -3.0885 C   0  0  0  0  0  0  0  0  0  0  0  0
   -2.4105    0.7998   -2.4860 C   0  0  0  0  0  0  0  0  0  0  0  0
   -3.0164   -1.1640   -0.2859 C   0  0  0  0  0  0  0  0  0  0  0  0
   -3.0941   -1.6980    1.1472 C   0  0  0  0  0  0  0  0  0  0  0  0
   -3.5421   -2.2518   -1.2200 C   0  0  0  0  0  0  0  0  0  0  0  0
    3.6049    3.3508    1.1531 H   0  0  0  0  0  0  0  0  0  0  0  0
    2.4302    2.3877    2.0784 H   0  0  0  0  0  0  0  0  0  0  0  0
    2.2404    2.5533    0.3378 H   0  0  0  0  0  0  0  0  0  0  0  0
    4.5722    1.1249    1.7261 H   0  0  0  0  0  0  0  0  0  0  0  0
    4.3606    1.2665   -0.0259 H   0  0  0  0  0  0  0  0  0  0  0  0
    4.4951   -2.0950   -1.1962 H   0  0  0  0  0  0  0  0  0  0  0  0
    2.9379   -2.9324   -1.3005 H   0  0  0  0  0  0  0  0  0  0  0  0
    3.7611   -2.7834    0.2598 H   0  0  0  0  0  0  0  0  0  0  0  0
    0.5845    0.1145    1.9519 H   0  0  0  0  0  0  0  0  0  0  0  0
   -0.6959   -1.0599    2.1750 H   0  0  0  0  0  0  0  0  0  0  0  0
   -0.2615    0.8834   -0.1442 H   0  0  0  0  0  0  0  0  0  0  0  0
   -1.7006    0.7723    0.8524 H   0  0  0  0  0  0  0  0  0  0  0  0
   -1.0033   -1.6200   -0.6077 H   0  0  0  0  0  0  0  0  0  0  0  0
   -0.3928    0.3397   -2.0456 H   0  0  0  0  0  0  0  0  0  0  0  0
   -0.6880   -0.9184   -4.0090 H   0  0  0  0  0  0  0  0  0  0  0  0
   -0.4296   -2.0812   -2.7092 H   0  0  0  0  0  0  0  0  0  0  0  0
   -2.0462   -1.8243   -3.3844 H   0  0  0  0  0  0  0  0  0  0  0  0
   -2.1207    1.2947   -3.4204 H   0  0  0  0  0  0  0  0  0  0  0  0
   -2.5334    1.5798   -1.7272 H   0  0  0  0  0  0  0  0  0  0  0  0
   -3.3830    0.3305   -2.6594 H   0  0  0  0  0  0  0  0  0  0  0  0
   -3.6325   -0.2623   -0.3609 H   0  0  0  0  0  0  0  0  0  0  0  0
   -2.8960   -0.9162    1.8839 H   0  0  0  0  0  0  0  0  0  0  0  0
   -4.1027   -2.0682    1.3659 H   0  0  0  0  0  0  0  0  0  0  0  0
   -2.3983   -2.5295    1.3053 H   0  0  0  0  0  0  0  0  0  0  0  0
   -4.4840   -2.6673   -0.8430 H   0  0  0  0  0  0  0  0  0  0  0  0
   -3.7723   -1.8611   -2.2125 H   0  0  0  0  0  0  0  0  0  0  0  0
   -2.8325   -3.0815   -1.3138 H   0  0  0  0  0  0  0  0  0  0  0  0
    4.0881    0.2127   -1.2509 O   0  0  0  0  0  0  0  0  0  0  0  0
    4.7079    0.6336   -0.6037 H   0  0  0  0  0  0  0  0  0  0  0  0
  1  2  1  0
  2  3  1  0
  4  3  1  1
  4  5  1  0
  4  6  2  0
  7  8  1  0
  8  9  1  0
  9 10  1  0
 10 11  1  0
 11 12  1  0
 11 13  1  0
 10 14  1  0
 14 15  1  0
 14 16  1  0
  1 17  1  0
  1 18  1  0
  1 19  1  0
  2 20  1  0
  2 21  1  0
  5 22  1  0
  5 23  1  0
  5 24  1  0
  8 25  1  0
  8 26  1  0
  9 27  1  0
  9 28  1  0
 10 29  1  0
 11 30  1  0
 12 31  1  0
 12 32  1  0
 12 33  1  0
 13 34  1  0
 13 35  1  0
 13 36  1  0
 14 37  1  0
 15 38  1  0
 15 39  1  0
 15 40  1  0
 16 41  1  0
 16 42  1  0
 16 43  1  0
 44 45  1  0
  4 44  1  0
  4  7  1  0
M  CHG  1  10   1
M  END
$$$$
