VX
     RDKit          3D

 45 44  0  0  0  0  0  0  0  0999 V2000
    3.4851   -1.9902   -1.3299 C   0  0  0  0  0  0  0  0  0  0  0  0
    3.0797   -0.5366   -1.1851 C   0  0  0  0  0  0  0  0  0  0  0  0
    3.0048   -0.2035    0.1996 O   0  0  0  0  0  0  0  0  0  0  0  0
    2.8351    1.3660    0.5728 P   0  0  0  0  0  0  0  0  0  0  0  0
    4.0415    2.1279    1.6420 C   0  0  0  0  0  0  0  0  0  0  0  0
    1.6835    2.1797    0.0334 O   0  0  0  0  0  0  0  0  0  0  0  0
    1.5382    0.7783    2.4549 S   0  0  0  0  0  0  0  0  0  0  0  0
   -0.0847    0.5476    1.6816 C   0  0  0  0  0  0  0  0  0  0  0  0
   -1.1170   -0.0105    2.6611 C   0  0  0  0  0  0  0  0  0  0  0  0
   -2.5282    0.0345    2.0204 N   0  0  0  0  0  0  0  0  0  0  0  0
   -3.0761   -1.3787    1.7019 C   0  0  0  0  0  0  0  0  0  0  0  0
   -2.1712   -2.0534    0.6642 C   0  0  0  0  0  0  0  0  0  0  0  0
   -4.4976   -1.3140    1.1364 C   0  0  0  0  0  0  0  0  0  0  0  0
   -3.4963    0.9704    2.7671 C   0  0  0  0  0  0  0  0  0  0  0  0
   -2.9751    2.4086    2.7378 C   0  0  0  0  0  0  0  0  0  0  0  0
   -3.7917    0.4748    4.1821 C   0  0  0  0  0  0  0  0  0  0  0  0
    2.8252   -2.6315   -0.7283 H   0  0  0  0  0  0  0  0  0  0  0  0
    4.5097   -2.1483   -0.9633 H   0  0  0  0  0  0  0  0  0  0  0  0
    3.4290   -2.3071   -2.3822 H   0  0  0  0  0  0  0  0  0  0  0  0
    3.8089    0.1093   -1.6926 H   0  0  0  0  0  0  0  0  0  0  0  0
    2.0827   -0.3851   -1.6243 H   0  0  0  0  0  0  0  0  0  0  0  0
    4.4178    1.4114    2.3774 H   0  0  0  0  0  0  0  0  0  0  0  0
    4.8887    2.4917    1.0531 H   0  0  0  0  0  0  0  0  0  0  0  0
    3.6152    2.9805    2.1799 H   0  0  0  0  0  0  0  0  0  0  0  0
    0.0316   -0.1224    0.8267 H   0  0  0  0  0  0  0  0  0  0  0  0
   -0.4084    1.5207    1.3009 H   0  0  0  0  0  0  0  0  0  0  0  0
   -0.9032   -1.0483    2.9404 H   0  0  0  0  0  0  0  0  0  0  0  0
   -1.1379    0.5734    3.5842 H   0  0  0  0  0  0  0  0  0  0  0  0
   -2.4236    0.4844    1.0977 H   0  0  0  0  0  0  0  0  0  0  0  0
   -3.0710   -1.9486    2.6402 H   0  0  0  0  0  0  0  0  0  0  0  0
   -1.1680   -2.2389    1.0538 H   0  0  0  0  0  0  0  0  0  0  0  0
   -2.0765   -1.4390   -0.2396 H   0  0  0  0  0  0  0  0  0  0  0  0
   -2.5817   -3.0254    0.3708 H   0  0  0  0  0  0  0  0  0  0  0  0
   -5.2241   -1.0033    1.8946 H   0  0  0  0  0  0  0  0  0  0  0  0
   -4.8203   -2.3047    0.7946 H   0  0  0  0  0  0  0  0  0  0  0  0
   -4.5625   -0.6263    0.2846 H   0  0  0  0  0  0  0  0  0  0  0  0
   -4.4231    0.9762    2.1839 H   0  0  0  0  0  0  0  0  0  0  0  0
   -3.6896    3.0841    3.2242 H   0  0  0  0  0  0  0  0  0  0  0  0
   -2.8533    2.7506    1.7041 H   0  0  0  0  0  0  0  0  0  0  0  0
   -2.0146    2.5387    3.2402 H   0  0  0  0  0  0  0  0  0  0  0  0
   -4.6192    1.0567    4.5989 H   0  0  0  0  0  0  0  0  0  0  0  0
   -2.9399    0.6041    4.8563 H   0  0  0  0  0  0  0  0  0  0  0  0
   -4.1048   -0.5769    4.1928 H   0  0  0  0  0  0  0  0  0  0  0  0
    3.8792    1.8391   -0.9424 O   0  0  0  0  0  0  0  0  0  0  0  0
    4.7498    2.2336   -0.6844 H   0  0  0  0  0  0  0  0  0  0  0  0
  1  2  1  0
  2  3  1  0
  4  3  1  1
  4  5  1  0
  4  6  2  0
  7  8  1  0
  8  9  1  0
  9 10  1  0
 10 11  1  0
 11 12  1  0
 11 13  1  0
 10 14  1  0
 14 15  1  0
 14 16  1  0
  1 17  1  0
  1 18  1  0
  1 19  1  0
  2 20  1  0
  2 21  1  0
  5 22  1  0
  5 23  1  0
  5 24  1  0
  8 25  1  0
  8 26  1  0
  9 27  1  0
  9 28  1  0
 10 29  1  0
 11 30  1  0
 12 31  1  0
 12 32  1  0
 12 33  1  0
 13 34  1  0
 13 35  1  0
 13 36  1  0
 14 37  1  0
 15 38  1  0
 15 39  1  0
 15 40  1  0
 16 41  1  0
 16 42  1  0
 16 43  1  0
 44 45  1  0
  4 44  1  0
  4  7  1  0
M  CHG  1  10   1
M  END
$$$$
