VX
     RDKit          3D

 45 44  0  0  0  0  0  0  0  0999 V2000
    3.3095   -2.4921    0.7444 C   0  0  0  0  0  0  0  0  0  0  0  0
    3.7432   -1.0680    1.0232 C   0  0  0  0  0  0  0  0  0  0  0  0
    2.9922   -0.1974    0.1929 O   0  0  0  0  0  0  0  0  0  0  0  0
    2.8414    1.3641    0.5765 P   0  0  0  0  0  0  0  0  0  0  0  0
    4.0414    2.1360    1.6445 C   0  0  0  0  0  0  0  0  0  0  0  0
    1.6899    2.1674    0.0339 O   0  0  0  0  0  0  0  0  0  0  0  0
    1.5445    0.7764    2.4586 S   0  0  0  0  0  0  0  0  0  0  0  0
   -0.0076    0.1901    1.7098 C   0  0  0  0  0  0  0  0  0  0  0  0
   -0.8906    1.3644    1.2820 C   0  0  0  0  0  0  0  0  0  0  0  0
   -2.0444    1.0182    0.3323 N   0  0  0  0  0  0  0  0  0  0  0  0
   -3.0960    0.0018    0.7859 C   0  0  0  0  0  0  0  0  0  0  0  0
   -3.5221    0.2791    2.2286 C   0  0  0  0  0  0  0  0  0  0  0  0
   -2.6917   -1.4505    0.5854 C   0  0  0  0  0  0  0  0  0  0  0  0
   -1.6591    1.0952   -1.1597 C   0  0  0  0  0  0  0  0  0  0  0  0
   -2.9065    1.0458   -2.0407 C   0  0  0  0  0  0  0  0  0  0  0  0
   -0.6214    0.0700   -1.5936 C   0  0  0  0  0  0  0  0  0  0  0  0
    3.4607   -2.7424   -0.3109 H   0  0  0  0  0  0  0  0  0  0  0  0
    3.8728   -3.1995    1.3593 H   0  0  0  0  0  0  0  0  0  0  0  0
    2.2413   -2.6164    0.9511 H   0  0  0  0  0  0  0  0  0  0  0  0
    3.5803   -0.8272    2.0777 H   0  0  0  0  0  0  0  0  0  0  0  0
    4.8059   -0.9467    0.7930 H   0  0  0  0  0  0  0  0  0  0  0  0
    4.4116    1.4390    2.4013 H   0  0  0  0  0  0  0  0  0  0  0  0
    4.8934    2.4986    1.0627 H   0  0  0  0  0  0  0  0  0  0  0  0
    3.5943    2.9892    2.1626 H   0  0  0  0  0  0  0  0  0  0  0  0
   -0.5183   -0.4084    2.4687 H   0  0  0  0  0  0  0  0  0  0  0  0
    0.2505   -0.4750    0.8861 H   0  0  0  0  0  0  0  0  0  0  0  0
   -0.3379    2.1649    0.7880 H   0  0  0  0  0  0  0  0  0  0  0  0
   -1.3506    1.8240    2.1653 H   0  0  0  0  0  0  0  0  0  0  0  0
   -2.5888    1.8890    0.4049 H   0  0  0  0  0  0  0  0  0  0  0  0
   -3.9783    0.1990    0.1667 H   0  0  0  0  0  0  0  0  0  0  0  0
   -4.4013   -0.3228    2.4846 H   0  0  0  0  0  0  0  0  0  0  0  0
   -2.7392    0.0273    2.9492 H   0  0  0  0  0  0  0  0  0  0  0  0
   -3.7963    1.3306    2.3660 H   0  0  0  0  0  0  0  0  0  0  0  0
   -1.7344   -1.7012    1.0427 H   0  0  0  0  0  0  0  0  0  0  0  0
   -2.6523   -1.7098   -0.4752 H   0  0  0  0  0  0  0  0  0  0  0  0
   -3.4427   -2.1145    1.0294 H   0  0  0  0  0  0  0  0  0  0  0  0
   -1.2207    2.0940   -1.2830 H   0  0  0  0  0  0  0  0  0  0  0  0
   -2.6476    1.2943   -3.0761 H   0  0  0  0  0  0  0  0  0  0  0  0
   -3.6568    1.7712   -1.7089 H   0  0  0  0  0  0  0  0  0  0  0  0
   -3.3625    0.0512   -2.0523 H   0  0  0  0  0  0  0  0  0  0  0  0
    0.3476    0.2594   -1.1297 H   0  0  0  0  0  0  0  0  0  0  0  0
   -0.4568    0.1384   -2.6754 H   0  0  0  0  0  0  0  0  0  0  0  0
   -0.9089   -0.9589   -1.3795 H   0  0  0  0  0  0  0  0  0  0  0  0
    3.8855    1.8372   -0.9387 O   0  0  0  0  0  0  0  0  0  0  0  0
    4.7561    2.2317   -0.6807 H   0  0  0  0  0  0  0  0  0  0  0  0
  1  2  1  0
  2  3  1  0
  4  3  1  1
  4  5  1  0
  4  6  2  0
  7  8  1  0
  8  9  1  0
  9 10  1  0
 10 11  1  0
 11 12  1  0
 11 13  1  0
 10 14  1  0
 14 15  1  0
 14 16  1  0
  1 17  1  0
  1 18  1  0
  1 19  1  0
  2 20  1  0
  2 21  1  0
  5 22  1  0
  5 23  1  0
  5 24  1  0
  8 25  1  0
  8 26  1  0
  9 27  1  0
  9 28  1  0
 10 29  1  0
 11 30  1  0
 12 31  1  0
 12 32  1  0
 12 33  1  0
 13 34  1  0
 13 35  1  0
 13 36  1  0
 14 37  1  0
 15 38  1  0
 15 39  1  0
 15 40  1  0
 16 41  1  0
 16 42  1  0
 16 43  1  0
 44 45  1  0
  4 44  1  0
  4  7  1  0
M  CHG  1  10   1
M  END
$$$$
