VX
     RDKit          3D

 45 44  0  0  0  0  0  0  0  0999 V2000
    4.6041   -0.1169    2.7403 C   0  0  0  0  0  0  0  0  0  0  0  0
    3.2993   -0.6427    2.1791 C   0  0  0  0  0  0  0  0  0  0  0  0
    2.9986    0.0596    0.9858 O   0  0  0  0  0  0  0  0  0  0  0  0
    2.6837   -0.7298   -0.3851 P   0  0  0  0  0  0  0  0  0  0  0  0
    3.5486   -2.2662   -0.6727 C   0  0  0  0  0  0  0  0  0  0  0  0
    1.7034   -0.2170   -1.4032 O   0  0  0  0  0  0  0  0  0  0  0  0
    0.9469   -1.9092    0.6930 S   0  0  0  0  0  0  0  0  0  0  0  0
   -0.2340   -2.2485   -0.6490 C   0  0  0  0  0  0  0  0  0  0  0  0
   -1.6441   -2.5474   -0.1319 C   0  0  0  0  0  0  0  0  0  0  0  0
   -2.7173   -1.4850   -0.4192 N   0  0  0  0  0  0  0  0  0  0  0  0
   -2.5984   -0.1103    0.2570 C   0  0  0  0  0  0  0  0  0  0  0  0
   -1.5875    0.8293   -0.3754 C   0  0  0  0  0  0  0  0  0  0  0  0
   -2.3761   -0.2698    1.7614 C   0  0  0  0  0  0  0  0  0  0  0  0
   -3.3288   -1.5705   -1.8311 C   0  0  0  0  0  0  0  0  0  0  0  0
   -4.5211   -0.6286   -1.9814 C   0  0  0  0  0  0  0  0  0  0  0  0
   -2.3244   -1.3955   -2.9617 C   0  0  0  0  0  0  0  0  0  0  0  0
    5.4197   -0.2689    2.0256 H   0  0  0  0  0  0  0  0  0  0  0  0
    4.8575   -0.6211    3.6770 H   0  0  0  0  0  0  0  0  0  0  0  0
    4.5391    0.9604    2.9252 H   0  0  0  0  0  0  0  0  0  0  0  0
    2.4855   -0.4692    2.8897 H   0  0  0  0  0  0  0  0  0  0  0  0
    3.3705   -1.7197    2.0028 H   0  0  0  0  0  0  0  0  0  0  0  0
    2.9612   -2.9116   -1.3322 H   0  0  0  0  0  0  0  0  0  0  0  0
    3.7294   -2.8105    0.2577 H   0  0  0  0  0  0  0  0  0  0  0  0
    4.5126   -2.0744   -1.1522 H   0  0  0  0  0  0  0  0  0  0  0  0
    0.1501   -3.1276   -1.1773 H   0  0  0  0  0  0  0  0  0  0  0  0
   -0.2261   -1.4223   -1.3566 H   0  0  0  0  0  0  0  0  0  0  0  0
   -2.0144   -3.4598   -0.6151 H   0  0  0  0  0  0  0  0  0  0  0  0
   -1.6758   -2.7437    0.9454 H   0  0  0  0  0  0  0  0  0  0  0  0
   -3.4985   -1.8731    0.1269 H   0  0  0  0  0  0  0  0  0  0  0  0
   -3.5883    0.3468    0.1563 H   0  0  0  0  0  0  0  0  0  0  0  0
   -1.8066    1.0225   -1.4263 H   0  0  0  0  0  0  0  0  0  0  0  0
   -1.6248    1.8026    0.1286 H   0  0  0  0  0  0  0  0  0  0  0  0
   -0.5619    0.4764   -0.2837 H   0  0  0  0  0  0  0  0  0  0  0  0
   -2.4942    0.6968    2.2638 H   0  0  0  0  0  0  0  0  0  0  0  0
   -3.1068   -0.9573    2.2003 H   0  0  0  0  0  0  0  0  0  0  0  0
   -1.3748   -0.6334    1.9997 H   0  0  0  0  0  0  0  0  0  0  0  0
   -3.7227   -2.5935   -1.8940 H   0  0  0  0  0  0  0  0  0  0  0  0
   -5.2339   -0.7538   -1.1596 H   0  0  0  0  0  0  0  0  0  0  0  0
   -4.2122    0.4205   -2.0247 H   0  0  0  0  0  0  0  0  0  0  0  0
   -5.0577   -0.8443   -2.9122 H   0  0  0  0  0  0  0  0  0  0  0  0
   -1.6037   -2.2177   -2.9864 H   0  0  0  0  0  0  0  0  0  0  0  0
   -2.8403   -1.4156   -3.9288 H   0  0  0  0  0  0  0  0  0  0  0  0
   -1.7786   -0.4531   -2.9108 H   0  0  0  0  0  0  0  0  0  0  0  0
    4.0820    0.2197   -1.2530 O   0  0  0  0  0  0  0  0  0  0  0  0
    4.7018    0.6406   -0.6059 H   0  0  0  0  0  0  0  0  0  0  0  0
  1  2  1  0
  2  3  1  0
  4  3  1  1
  4  5  1  0
  4  6  2  0
  7  8  1  0
  8  9  1  0
  9 10  1  0
 10 11  1  0
 11 12  1  0
 11 13  1  0
 10 14  1  0
 14 15  1  0
 14 16  1  0
  1 17  1  0
  1 18  1  0
  1 19  1  0
  2 20  1  0
  2 21  1  0
  5 22  1  0
  5 23  1  0
  5 24  1  0
  8 25  1  0
  8 26  1  0
  9 27  1  0
  9 28  1  0
 10 29  1  0
 11 30  1  0
 12 31  1  0
 12 32  1  0
 12 33  1  0
 13 34  1  0
 13 35  1  0
 13 36  1  0
 14 37  1  0
 15 38  1  0
 15 39  1  0
 15 40  1  0
 16 41  1  0
 16 42  1  0
 16 43  1  0
 44 45  1  0
  4 44  1  0
  4  7  1  0
M  CHG  1  10   1
M  END
$$$$
