VX
     RDKit          3D

 45 44  0  0  0  0  0  0  0  0999 V2000
    3.8599   -2.0050   -1.0955 C   0  0  0  0  0  0  0  0  0  0  0  0
    3.5018   -0.5327   -1.0829 C   0  0  0  0  0  0  0  0  0  0  0  0
    3.0099   -0.1966    0.2053 O   0  0  0  0  0  0  0  0  0  0  0  0
    2.8301    1.3651    0.5691 P   0  0  0  0  0  0  0  0  0  0  0  0
    4.0400    2.1212    1.6389 C   0  0  0  0  0  0  0  0  0  0  0  0
    1.6850    2.1804    0.0346 O   0  0  0  0  0  0  0  0  0  0  0  0
    1.5332    0.7774    2.4512 S   0  0  0  0  0  0  0  0  0  0  0  0
    0.0701    1.8486    2.3055 C   0  0  0  0  0  0  0  0  0  0  0  0
   -0.8300    1.5282    1.0961 C   0  0  0  0  0  0  0  0  0  0  0  0
   -2.0659    0.6599    1.4436 N   0  0  0  0  0  0  0  0  0  0  0  0
   -3.1537    1.3676    2.2956 C   0  0  0  0  0  0  0  0  0  0  0  0
   -3.0372    2.8968    2.3202 C   0  0  0  0  0  0  0  0  0  0  0  0
   -4.5359    1.0386    1.7139 C   0  0  0  0  0  0  0  0  0  0  0  0
   -1.6548   -0.7571    1.9364 C   0  0  0  0  0  0  0  0  0  0  0  0
   -2.8520   -1.6188    2.3390 C   0  0  0  0  0  0  0  0  0  0  0  0
   -0.9070   -1.4978    0.8206 C   0  0  0  0  0  0  0  0  0  0  0  0
    2.9852   -2.6143   -0.8450 H   0  0  0  0  0  0  0  0  0  0  0  0
    4.2321   -2.3076   -2.0785 H   0  0  0  0  0  0  0  0  0  0  0  0
    4.6257   -2.2223   -0.3430 H   0  0  0  0  0  0  0  0  0  0  0  0
    4.3831    0.0707   -1.3190 H   0  0  0  0  0  0  0  0  0  0  0  0
    2.7228   -0.3280   -1.8246 H   0  0  0  0  0  0  0  0  0  0  0  0
    4.4503    1.3887    2.3402 H   0  0  0  0  0  0  0  0  0  0  0  0
    4.8664    2.5437    1.0613 H   0  0  0  0  0  0  0  0  0  0  0  0
    3.5834    2.9306    2.2155 H   0  0  0  0  0  0  0  0  0  0  0  0
    0.4393    2.8756    2.2154 H   0  0  0  0  0  0  0  0  0  0  0  0
   -0.4781    1.7825    3.2493 H   0  0  0  0  0  0  0  0  0  0  0  0
   -1.2208    2.4497    0.6560 H   0  0  0  0  0  0  0  0  0  0  0  0
   -0.3118    1.0189    0.2815 H   0  0  0  0  0  0  0  0  0  0  0  0
   -2.5070    0.5043    0.5274 H   0  0  0  0  0  0  0  0  0  0  0  0
   -3.0478    0.9945    3.3197 H   0  0  0  0  0  0  0  0  0  0  0  0
   -3.1180    3.3308    1.3181 H   0  0  0  0  0  0  0  0  0  0  0  0
   -3.8506    3.3227    2.9193 H   0  0  0  0  0  0  0  0  0  0  0  0
   -2.1121    3.2445    2.7835 H   0  0  0  0  0  0  0  0  0  0  0  0
   -4.6270    1.4048    0.6850 H   0  0  0  0  0  0  0  0  0  0  0  0
   -4.7615   -0.0269    1.7034 H   0  0  0  0  0  0  0  0  0  0  0  0
   -5.3226    1.5189    2.3069 H   0  0  0  0  0  0  0  0  0  0  0  0
   -1.0220   -0.6159    2.8161 H   0  0  0  0  0  0  0  0  0  0  0  0
   -2.5068   -2.6001    2.6867 H   0  0  0  0  0  0  0  0  0  0  0  0
   -3.4198   -1.1868    3.1673 H   0  0  0  0  0  0  0  0  0  0  0  0
   -3.5230   -1.7995    1.4926 H   0  0  0  0  0  0  0  0  0  0  0  0
   -0.6883   -2.5287    1.1221 H   0  0  0  0  0  0  0  0  0  0  0  0
   -1.5053   -1.5414   -0.0967 H   0  0  0  0  0  0  0  0  0  0  0  0
    0.0537   -1.0413    0.5741 H   0  0  0  0  0  0  0  0  0  0  0  0
    3.8742    1.8382   -0.9461 O   0  0  0  0  0  0  0  0  0  0  0  0
    4.7448    2.2327   -0.6881 H   0  0  0  0  0  0  0  0  0  0  0  0
  1  2  1  0
  2  3  1  0
  4  3  1  1
  4  5  1  0
  4  6  2  0
  7  8  1  0
  8  9  1  0
  9 10  1  0
 10 11  1  0
 11 12  1  0
 11 13  1  0
 10 14  1  0
 14 15  1  0
 14 16  1  0
  1 17  1  0
  1 18  1  0
  1 19  1  0
  2 20  1  0
  2 21  1  0
  5 22  1  0
  5 23  1  0
  5 24  1  0
  8 25  1  0
  8 26  1  0
  9 27  1  0
  9 28  1  0
 10 29  1  0
 11 30  1  0
 12 31  1  0
 12 32  1  0
 12 33  1  0
 13 34  1  0
 13 35  1  0
 13 36  1  0
 14 37  1  0
 15 38  1  0
 15 39  1  0
 15 40  1  0
 16 41  1  0
 16 42  1  0
 16 43  1  0
 44 45  1  0
  4 44  1  0
  4  7  1  0
M  CHG  1  10   1
M  END
$$$$
