VX
     RDKit          3D

 45 44  0  0  0  0  0  0  0  0999 V2000
    3.6964   -2.0294   -1.1542 C   0  0  0  0  0  0  0  0  0  0  0  0
    3.4837   -0.5314   -1.0877 C   0  0  0  0  0  0  0  0  0  0  0  0
    3.0185   -0.1965    0.2112 O   0  0  0  0  0  0  0  0  0  0  0  0
    2.8240    1.3660    0.5651 P   0  0  0  0  0  0  0  0  0  0  0  0
    4.0392    2.1141    1.6361 C   0  0  0  0  0  0  0  0  0  0  0  0
    1.6833    2.1865    0.0353 O   0  0  0  0  0  0  0  0  0  0  0  0
    1.5271    0.7783    2.4472 S   0  0  0  0  0  0  0  0  0  0  0  0
    0.6166    2.3095    2.8285 C   0  0  0  0  0  0  0  0  0  0  0  0
   -0.6122    2.0045    3.6888 C   0  0  0  0  0  0  0  0  0  0  0  0
   -1.4960    0.9149    3.0683 N   0  0  0  0  0  0  0  0  0  0  0  0
   -2.3888    1.3137    1.8736 C   0  0  0  0  0  0  0  0  0  0  0  0
   -1.6987    0.9425    0.5634 C   0  0  0  0  0  0  0  0  0  0  0  0
   -2.8133    2.7776    1.8952 C   0  0  0  0  0  0  0  0  0  0  0  0
   -2.2476    0.0420    4.0848 C   0  0  0  0  0  0  0  0  0  0  0  0
   -3.1397    0.8832    4.9890 C   0  0  0  0  0  0  0  0  0  0  0  0
   -1.2668   -0.8217    4.8775 C   0  0  0  0  0  0  0  0  0  0  0  0
    2.7641   -2.5614   -0.9374 H   0  0  0  0  0  0  0  0  0  0  0  0
    4.0523   -2.3297   -2.1437 H   0  0  0  0  0  0  0  0  0  0  0  0
    4.4270   -2.3487   -0.4037 H   0  0  0  0  0  0  0  0  0  0  0  0
    2.7382   -0.2240   -1.8275 H   0  0  0  0  0  0  0  0  0  0  0  0
    4.4230   -0.0089   -1.2909 H   0  0  0  0  0  0  0  0  0  0  0  0
    4.8657    2.5340    1.0568 H   0  0  0  0  0  0  0  0  0  0  0  0
    3.5882    2.9231    2.2178 H   0  0  0  0  0  0  0  0  0  0  0  0
    4.4476    1.3764    2.3326 H   0  0  0  0  0  0  0  0  0  0  0  0
    0.3167    2.8018    1.9015 H   0  0  0  0  0  0  0  0  0  0  0  0
    1.2868    2.9925    3.3597 H   0  0  0  0  0  0  0  0  0  0  0  0
   -1.2212    2.8934    3.8714 H   0  0  0  0  0  0  0  0  0  0  0  0
   -0.2740    1.6440    4.6642 H   0  0  0  0  0  0  0  0  0  0  0  0
   -0.7997    0.2635    2.6686 H   0  0  0  0  0  0  0  0  0  0  0  0
   -3.2946    0.7005    1.9436 H   0  0  0  0  0  0  0  0  0  0  0  0
   -2.3857    1.0847   -0.2781 H   0  0  0  0  0  0  0  0  0  0  0  0
   -0.8206    1.5618    0.3704 H   0  0  0  0  0  0  0  0  0  0  0  0
   -1.3905   -0.1083    0.5599 H   0  0  0  0  0  0  0  0  0  0  0  0
   -3.2961    3.0476    2.8387 H   0  0  0  0  0  0  0  0  0  0  0  0
   -1.9717    3.4559    1.7262 H   0  0  0  0  0  0  0  0  0  0  0  0
   -3.5391    2.9673    1.0962 H   0  0  0  0  0  0  0  0  0  0  0  0
   -2.8673   -0.6443    3.4955 H   0  0  0  0  0  0  0  0  0  0  0  0
   -2.5650    1.5915    5.5937 H   0  0  0  0  0  0  0  0  0  0  0  0
   -3.6923    0.2372    5.6801 H   0  0  0  0  0  0  0  0  0  0  0  0
   -3.8794    1.4445    4.4115 H   0  0  0  0  0  0  0  0  0  0  0  0
   -1.8164   -1.5567    5.4764 H   0  0  0  0  0  0  0  0  0  0  0  0
   -0.5987   -1.3768    4.2108 H   0  0  0  0  0  0  0  0  0  0  0  0
   -0.6552   -0.2384    5.5713 H   0  0  0  0  0  0  0  0  0  0  0  0
    3.8681    1.8391   -0.9501 O   0  0  0  0  0  0  0  0  0  0  0  0
    4.7387    2.2336   -0.6921 H   0  0  0  0  0  0  0  0  0  0  0  0
  1  2  1  0
  2  3  1  0
  4  3  1  1
  4  5  1  0
  4  6  2  0
  7  8  1  0
  8  9  1  0
  9 10  1  0
 10 11  1  0
 11 12  1  0
 11 13  1  0
 10 14  1  0
 14 15  1  0
 14 16  1  0
  1 17  1  0
  1 18  1  0
  1 19  1  0
  2 20  1  0
  2 21  1  0
  5 22  1  0
  5 23  1  0
  5 24  1  0
  8 25  1  0
  8 26  1  0
  9 27  1  0
  9 28  1  0
 10 29  1  0
 11 30  1  0
 12 31  1  0
 12 32  1  0
 12 33  1  0
 13 34  1  0
 13 35  1  0
 13 36  1  0
 14 37  1  0
 15 38  1  0
 15 39  1  0
 15 40  1  0
 16 41  1  0
 16 42  1  0
 16 43  1  0
 44 45  1  0
  4 44  1  0
  4  7  1  0
M  CHG  1  10   1
M  END
$$$$
