VX
     RDKit          3D

 45 44  0  0  0  0  0  0  0  0999 V2000
    3.3648   -2.4897    0.7323 C   0  0  0  0  0  0  0  0  0  0  0  0
    3.7651   -1.0579    1.0225 C   0  0  0  0  0  0  0  0  0  0  0  0
    2.9983   -0.1979    0.1969 O   0  0  0  0  0  0  0  0  0  0  0  0
    2.8369    1.3648    0.5737 P   0  0  0  0  0  0  0  0  0  0  0  0
    4.0411    2.1313    1.6427 C   0  0  0  0  0  0  0  0  0  0  0  0
    1.6887    2.1719    0.0344 O   0  0  0  0  0  0  0  0  0  0  0  0
    1.5400    0.7772    2.4558 S   0  0  0  0  0  0  0  0  0  0  0  0
   -0.1260    0.7281    1.7342 C   0  0  0  0  0  0  0  0  0  0  0  0
   -1.1648    0.3235    2.7771 C   0  0  0  0  0  0  0  0  0  0  0  0
   -2.5574    0.1346    2.1571 N   0  0  0  0  0  0  0  0  0  0  0  0
   -3.3000    1.4063    1.6860 C   0  0  0  0  0  0  0  0  0  0  0  0
   -2.9465    2.6538    2.4878 C   0  0  0  0  0  0  0  0  0  0  0  0
   -3.0750    1.5987    0.1871 C   0  0  0  0  0  0  0  0  0  0  0  0
   -3.4816   -0.8057    2.9560 C   0  0  0  0  0  0  0  0  0  0  0  0
   -3.6756   -0.3275    4.3889 C   0  0  0  0  0  0  0  0  0  0  0  0
   -2.9595   -2.2413    2.8915 C   0  0  0  0  0  0  0  0  0  0  0  0
    3.5249   -2.7289   -0.3243 H   0  0  0  0  0  0  0  0  0  0  0  0
    2.2993   -2.6401    0.9350 H   0  0  0  0  0  0  0  0  0  0  0  0
    3.9426   -3.1882    1.3438 H   0  0  0  0  0  0  0  0  0  0  0  0
    4.8258   -0.9128    0.7972 H   0  0  0  0  0  0  0  0  0  0  0  0
    3.5931   -0.8282    2.0780 H   0  0  0  0  0  0  0  0  0  0  0  0
    3.5977    2.9875    2.1591 H   0  0  0  0  0  0  0  0  0  0  0  0
    4.8955    2.4886    1.0613 H   0  0  0  0  0  0  0  0  0  0  0  0
    4.4064    1.4335    2.4011 H   0  0  0  0  0  0  0  0  0  0  0  0
   -0.3390    1.7218    1.3382 H   0  0  0  0  0  0  0  0  0  0  0  0
   -0.1210    0.0184    0.9006 H   0  0  0  0  0  0  0  0  0  0  0  0
   -0.8772   -0.6395    3.2067 H   0  0  0  0  0  0  0  0  0  0  0  0
   -1.2496    1.0463    3.5936 H   0  0  0  0  0  0  0  0  0  0  0  0
   -2.3858   -0.3972    1.2932 H   0  0  0  0  0  0  0  0  0  0  0  0
   -4.3695    1.2108    1.8247 H   0  0  0  0  0  0  0  0  0  0  0  0
   -3.6000    3.4825    2.1921 H   0  0  0  0  0  0  0  0  0  0  0  0
   -3.0862    2.5031    3.5615 H   0  0  0  0  0  0  0  0  0  0  0  0
   -1.9194    2.9865    2.3159 H   0  0  0  0  0  0  0  0  0  0  0  0
   -2.0313    1.8090   -0.0570 H   0  0  0  0  0  0  0  0  0  0  0  0
   -3.3815    0.7085   -0.3727 H   0  0  0  0  0  0  0  0  0  0  0  0
   -3.6735    2.4392   -0.1812 H   0  0  0  0  0  0  0  0  0  0  0  0
   -4.4454   -0.7961    2.4328 H   0  0  0  0  0  0  0  0  0  0  0  0
   -4.3582   -0.9998    4.9208 H   0  0  0  0  0  0  0  0  0  0  0  0
   -2.7361   -0.3086    4.9497 H   0  0  0  0  0  0  0  0  0  0  0  0
   -4.1193    0.6709    4.4223 H   0  0  0  0  0  0  0  0  0  0  0  0
   -2.7471   -2.5416    1.8601 H   0  0  0  0  0  0  0  0  0  0  0  0
   -2.0538   -2.3867    3.4871 H   0  0  0  0  0  0  0  0  0  0  0  0
   -3.7144   -2.9309    3.2860 H   0  0  0  0  0  0  0  0  0  0  0  0
    3.8810    1.8379   -0.9416 O   0  0  0  0  0  0  0  0  0  0  0  0
    4.7516    2.2323   -0.6835 H   0  0  0  0  0  0  0  0  0  0  0  0
  1  2  1  0
  2  3  1  0
  4  3  1  1
  4  5  1  0
  4  6  2  0
  7  8  1  0
  8  9  1  0
  9 10  1  0
 10 11  1  0
 11 12  1  0
 11 13  1  0
 10 14  1  0
 14 15  1  0
 14 16  1  0
  1 17  1  0
  1 18  1  0
  1 19  1  0
  2 20  1  0
  2 21  1  0
  5 22  1  0
  5 23  1  0
  5 24  1  0
  8 25  1  0
  8 26  1  0
  9 27  1  0
  9 28  1  0
 10 29  1  0
 11 30  1  0
 12 31  1  0
 12 32  1  0
 12 33  1  0
 13 34  1  0
 13 35  1  0
 13 36  1  0
 14 37  1  0
 15 38  1  0
 15 39  1  0
 15 40  1  0
 16 41  1  0
 16 42  1  0
 16 43  1  0
 44 45  1  0
  4 44  1  0
  4  7  1  0
M  CHG  1  10   1
M  END
$$$$
