VX
     RDKit          3D

 45 44  0  0  0  0  0  0  0  0999 V2000
    3.5114    2.0870    2.1353 C   0  0  0  0  0  0  0  0  0  0  0  0
    3.8232    1.2239    0.9308 C   0  0  0  0  0  0  0  0  0  0  0  0
    2.9777    0.0830    0.9778 O   0  0  0  0  0  0  0  0  0  0  0  0
    2.6999   -0.7489   -0.3799 P   0  0  0  0  0  0  0  0  0  0  0  0
    3.5409   -2.2716   -0.6909 C   0  0  0  0  0  0  0  0  0  0  0  0
    1.7157   -0.2159   -1.3822 O   0  0  0  0  0  0  0  0  0  0  0  0
    0.9631   -1.9283    0.6982 S   0  0  0  0  0  0  0  0  0  0  0  0
    0.1364   -0.6458    1.6876 C   0  0  0  0  0  0  0  0  0  0  0  0
   -0.4331    0.5471    0.8879 C   0  0  0  0  0  0  0  0  0  0  0  0
   -1.2174    0.1753   -0.3897 N   0  0  0  0  0  0  0  0  0  0  0  0
   -1.5379    1.4488   -1.2214 C   0  0  0  0  0  0  0  0  0  0  0  0
   -2.4501    1.1777   -2.4172 C   0  0  0  0  0  0  0  0  0  0  0  0
   -0.2510    2.0614   -1.7894 C   0  0  0  0  0  0  0  0  0  0  0  0
   -2.3826   -0.7829   -0.0640 C   0  0  0  0  0  0  0  0  0  0  0  0
   -2.7571   -1.6541   -1.2585 C   0  0  0  0  0  0  0  0  0  0  0  0
   -3.5582   -0.0578    0.5796 C   0  0  0  0  0  0  0  0  0  0  0  0
    2.4599    2.3627    2.1446 H   0  0  0  0  0  0  0  0  0  0  0  0
    4.1147    2.9988    2.1378 H   0  0  0  0  0  0  0  0  0  0  0  0
    3.6938    1.5367    3.0648 H   0  0  0  0  0  0  0  0  0  0  0  0
    4.8653    0.8970    0.9550 H   0  0  0  0  0  0  0  0  0  0  0  0
    3.6519    1.7866    0.0111 H   0  0  0  0  0  0  0  0  0  0  0  0
    4.5261   -2.1129   -1.1515 H   0  0  0  0  0  0  0  0  0  0  0  0
    3.6994   -2.8082    0.2480 H   0  0  0  0  0  0  0  0  0  0  0  0
    2.9513   -2.9124   -1.3512 H   0  0  0  0  0  0  0  0  0  0  0  0
    0.8596   -0.2608    2.4200 H   0  0  0  0  0  0  0  0  0  0  0  0
   -0.6458   -1.1290    2.2698 H   0  0  0  0  0  0  0  0  0  0  0  0
   -1.1051    1.1432    1.5221 H   0  0  0  0  0  0  0  0  0  0  0  0
    0.3974    1.1945    0.5961 H   0  0  0  0  0  0  0  0  0  0  0  0
   -0.5377   -0.3586   -0.9579 H   0  0  0  0  0  0  0  0  0  0  0  0
   -2.0159    2.1565   -0.5374 H   0  0  0  0  0  0  0  0  0  0  0  0
   -3.4722    0.9503   -2.1200 H   0  0  0  0  0  0  0  0  0  0  0  0
   -2.5218    2.0655   -3.0544 H   0  0  0  0  0  0  0  0  0  0  0  0
   -2.0681    0.3683   -3.0427 H   0  0  0  0  0  0  0  0  0  0  0  0
    0.5074    2.2651   -1.0416 H   0  0  0  0  0  0  0  0  0  0  0  0
    0.1829    1.4040   -2.5421 H   0  0  0  0  0  0  0  0  0  0  0  0
   -0.4591    3.0194   -2.2872 H   0  0  0  0  0  0  0  0  0  0  0  0
   -1.9954   -1.4844    0.6739 H   0  0  0  0  0  0  0  0  0  0  0  0
   -3.2050   -2.5885   -0.8988 H   0  0  0  0  0  0  0  0  0  0  0  0
   -3.5038   -1.1928   -1.9079 H   0  0  0  0  0  0  0  0  0  0  0  0
   -1.8805   -1.9251   -1.8592 H   0  0  0  0  0  0  0  0  0  0  0  0
   -3.2587    0.4593    1.4968 H   0  0  0  0  0  0  0  0  0  0  0  0
   -4.0237    0.6751   -0.0769 H   0  0  0  0  0  0  0  0  0  0  0  0
   -4.3358   -0.7721    0.8532 H   0  0  0  0  0  0  0  0  0  0  0  0
    4.0982    0.2006   -1.2478 O   0  0  0  0  0  0  0  0  0  0  0  0
    4.7180    0.6215   -0.6007 H   0  0  0  0  0  0  0  0  0  0  0  0
  1  2  1  0
  2  3  1  0
  4  3  1  1
  4  5  1  0
  4  6  2  0
  7  8  1  0
  8  9  1  0
  9 10  1  0
 10 11  1  0
 11 12  1  0
 11 13  1  0
 10 14  1  0
 14 15  1  0
 14 16  1  0
  1 17  1  0
  1 18  1  0
  1 19  1  0
  2 20  1  0
  2 21  1  0
  5 22  1  0
  5 23  1  0
  5 24  1  0
  8 25  1  0
  8 26  1  0
  9 27  1  0
  9 28  1  0
 10 29  1  0
 11 30  1  0
 12 31  1  0
 12 32  1  0
 12 33  1  0
 13 34  1  0
 13 35  1  0
 13 36  1  0
 14 37  1  0
 15 38  1  0
 15 39  1  0
 15 40  1  0
 16 41  1  0
 16 42  1  0
 16 43  1  0
 44 45  1  0
  4 44  1  0
  4  7  1  0
M  CHG  1  10   1
M  END
$$$$
