VX
     RDKit          3D

 45 44  0  0  0  0  0  0  0  0999 V2000
    3.2910   -2.4922    0.7520 C   0  0  0  0  0  0  0  0  0  0  0  0
    3.7394   -1.0701    1.0195 C   0  0  0  0  0  0  0  0  0  0  0  0
    2.9888   -0.1971    0.1906 O   0  0  0  0  0  0  0  0  0  0  0  0
    2.8437    1.3639    0.5781 P   0  0  0  0  0  0  0  0  0  0  0  0
    4.0413    2.1386    1.6452 C   0  0  0  0  0  0  0  0  0  0  0  0
    1.6911    2.1647    0.0339 O   0  0  0  0  0  0  0  0  0  0  0  0
    1.5468    0.7762    2.4602 S   0  0  0  0  0  0  0  0  0  0  0  0
   -0.0196    0.2441    1.6998 C   0  0  0  0  0  0  0  0  0  0  0  0
   -0.8947    1.4462    1.3349 C   0  0  0  0  0  0  0  0  0  0  0  0
   -1.9418    1.1750    0.2409 N   0  0  0  0  0  0  0  0  0  0  0  0
   -1.3107    0.8638   -1.1283 C   0  0  0  0  0  0  0  0  0  0  0  0
   -1.4337   -0.5861   -1.5644 C   0  0  0  0  0  0  0  0  0  0  0  0
   -1.8636    1.8199   -2.1864 C   0  0  0  0  0  0  0  0  0  0  0  0
   -3.2329    0.5269    0.7392 C   0  0  0  0  0  0  0  0  0  0  0  0
   -3.1463   -0.9697    1.0060 C   0  0  0  0  0  0  0  0  0  0  0  0
   -4.4004    0.8665   -0.1833 C   0  0  0  0  0  0  0  0  0  0  0  0
    2.2236   -2.6051    0.9703 H   0  0  0  0  0  0  0  0  0  0  0  0
    3.4295   -2.7500   -0.3032 H   0  0  0  0  0  0  0  0  0  0  0  0
    3.8535   -3.2012    1.3654 H   0  0  0  0  0  0  0  0  0  0  0  0
    3.5876   -0.8227    2.0744 H   0  0  0  0  0  0  0  0  0  0  0  0
    4.8014   -0.9580    0.7812 H   0  0  0  0  0  0  0  0  0  0  0  0
    4.8891    2.5098    1.0625 H   0  0  0  0  0  0  0  0  0  0  0  0
    3.5911    2.9861    2.1696 H   0  0  0  0  0  0  0  0  0  0  0  0
    4.4191    1.4406    2.3970 H   0  0  0  0  0  0  0  0  0  0  0  0
    0.2271   -0.3754    0.8362 H   0  0  0  0  0  0  0  0  0  0  0  0
   -0.5299   -0.3829    2.4347 H   0  0  0  0  0  0  0  0  0  0  0  0
   -1.4423    1.8034    2.2150 H   0  0  0  0  0  0  0  0  0  0  0  0
   -0.3192    2.2988    0.9656 H   0  0  0  0  0  0  0  0  0  0  0  0
   -2.2624    2.1416    0.0964 H   0  0  0  0  0  0  0  0  0  0  0  0
   -0.2461    1.0918   -1.0283 H   0  0  0  0  0  0  0  0  0  0  0  0
   -0.8265   -0.7551   -2.4613 H   0  0  0  0  0  0  0  0  0  0  0  0
   -2.4595   -0.8507   -1.8322 H   0  0  0  0  0  0  0  0  0  0  0  0
   -1.0680   -1.2788   -0.8025 H   0  0  0  0  0  0  0  0  0  0  0  0
   -1.3253    1.6895   -3.1320 H   0  0  0  0  0  0  0  0  0  0  0  0
   -1.7372    2.8643   -1.8813 H   0  0  0  0  0  0  0  0  0  0  0  0
   -2.9236    1.6486   -2.3894 H   0  0  0  0  0  0  0  0  0  0  0  0
   -3.4366    1.0222    1.6968 H   0  0  0  0  0  0  0  0  0  0  0  0
   -2.2366   -1.2623    1.5279 H   0  0  0  0  0  0  0  0  0  0  0  0
   -3.2312   -1.5676    0.0958 H   0  0  0  0  0  0  0  0  0  0  0  0
   -3.9875   -1.2727    1.6415 H   0  0  0  0  0  0  0  0  0  0  0  0
   -4.4609    1.9437   -0.3716 H   0  0  0  0  0  0  0  0  0  0  0  0
   -4.3314    0.3482   -1.1436 H   0  0  0  0  0  0  0  0  0  0  0  0
   -5.3465    0.5625    0.2793 H   0  0  0  0  0  0  0  0  0  0  0  0
    3.8878    1.8370   -0.9371 O   0  0  0  0  0  0  0  0  0  0  0  0
    4.7584    2.2315   -0.6791 H   0  0  0  0  0  0  0  0  0  0  0  0
  1  2  1  0
  2  3  1  0
  4  3  1  1
  4  5  1  0
  4  6  2  0
  7  8  1  0
  8  9  1  0
  9 10  1  0
 10 11  1  0
 11 12  1  0
 11 13  1  0
 10 14  1  0
 14 15  1  0
 14 16  1  0
  1 17  1  0
  1 18  1  0
  1 19  1  0
  2 20  1  0
  2 21  1  0
  5 22  1  0
  5 23  1  0
  5 24  1  0
  8 25  1  0
  8 26  1  0
  9 27  1  0
  9 28  1  0
 10 29  1  0
 11 30  1  0
 12 31  1  0
 12 32  1  0
 12 33  1  0
 13 34  1  0
 13 35  1  0
 13 36  1  0
 14 37  1  0
 15 38  1  0
 15 39  1  0
 15 40  1  0
 16 41  1  0
 16 42  1  0
 16 43  1  0
 44 45  1  0
  4 44  1  0
  4  7  1  0
M  CHG  1  10   1
M  END
$$$$
