VX
     RDKit          3D

 45 44  0  0  0  0  0  0  0  0999 V2000
    4.7320   -0.0582    2.5950 C   0  0  0  0  0  0  0  0  0  0  0  0
    3.3792   -0.5861    2.1649 C   0  0  0  0  0  0  0  0  0  0  0  0
    2.9791    0.0821    0.9791 O   0  0  0  0  0  0  0  0  0  0  0  0
    2.6973   -0.7443   -0.3790 P   0  0  0  0  0  0  0  0  0  0  0  0
    3.5467   -2.2790   -0.6896 C   0  0  0  0  0  0  0  0  0  0  0  0
    1.7111   -0.2122   -1.3856 O   0  0  0  0  0  0  0  0  0  0  0  0
    0.9606   -1.9237    0.6991 S   0  0  0  0  0  0  0  0  0  0  0  0
   -0.5381   -1.1687    0.0022 C   0  0  0  0  0  0  0  0  0  0  0  0
   -0.6460    0.3189    0.3725 C   0  0  0  0  0  0  0  0  0  0  0  0
   -1.7348    1.0277   -0.4614 N   0  0  0  0  0  0  0  0  0  0  0  0
   -1.2176    1.3555   -1.8772 C   0  0  0  0  0  0  0  0  0  0  0  0
   -0.4949    2.6875   -1.9774 C   0  0  0  0  0  0  0  0  0  0  0  0
   -2.3345    1.2128   -2.9091 C   0  0  0  0  0  0  0  0  0  0  0  0
   -2.4896    2.0648    0.3787 C   0  0  0  0  0  0  0  0  0  0  0  0
   -1.6030    3.1681    0.9501 C   0  0  0  0  0  0  0  0  0  0  0  0
   -3.7034    2.6212   -0.3518 C   0  0  0  0  0  0  0  0  0  0  0  0
    5.4834   -0.2430    1.8205 H   0  0  0  0  0  0  0  0  0  0  0  0
    5.0591   -0.5340    3.5237 H   0  0  0  0  0  0  0  0  0  0  0  0
    4.6928    1.0254    2.7482 H   0  0  0  0  0  0  0  0  0  0  0  0
    2.6317   -0.3787    2.9366 H   0  0  0  0  0  0  0  0  0  0  0  0
    3.4201   -1.6694    2.0196 H   0  0  0  0  0  0  0  0  0  0  0  0
    2.9527   -2.9112   -1.3560 H   0  0  0  0  0  0  0  0  0  0  0  0
    3.7261   -2.8390    0.2316 H   0  0  0  0  0  0  0  0  0  0  0  0
    4.5107   -2.0903   -1.1704 H   0  0  0  0  0  0  0  0  0  0  0  0
   -1.4078   -1.7080    0.3922 H   0  0  0  0  0  0  0  0  0  0  0  0
   -0.5236   -1.3278   -1.0790 H   0  0  0  0  0  0  0  0  0  0  0  0
    0.2758    0.8884    0.2332 H   0  0  0  0  0  0  0  0  0  0  0  0
   -0.9408    0.3940    1.4257 H   0  0  0  0  0  0  0  0  0  0  0  0
   -2.4446    0.3008   -0.6169 H   0  0  0  0  0  0  0  0  0  0  0  0
   -0.4955    0.5701   -2.1146 H   0  0  0  0  0  0  0  0  0  0  0  0
    0.0149    2.7605   -2.9451 H   0  0  0  0  0  0  0  0  0  0  0  0
    0.2708    2.7955   -1.2038 H   0  0  0  0  0  0  0  0  0  0  0  0
   -1.1841    3.5344   -1.9261 H   0  0  0  0  0  0  0  0  0  0  0  0
   -1.9080    1.2057   -3.9188 H   0  0  0  0  0  0  0  0  0  0  0  0
   -3.0495    2.0368   -2.8780 H   0  0  0  0  0  0  0  0  0  0  0  0
   -2.8809    0.2727   -2.7802 H   0  0  0  0  0  0  0  0  0  0  0  0
   -2.8772    1.4830    1.2256 H   0  0  0  0  0  0  0  0  0  0  0  0
   -2.1461    3.6980    1.7416 H   0  0  0  0  0  0  0  0  0  0  0  0
   -0.6847    2.7814    1.3997 H   0  0  0  0  0  0  0  0  0  0  0  0
   -1.3337    3.9229    0.2089 H   0  0  0  0  0  0  0  0  0  0  0  0
   -4.3106    1.8211   -0.7871 H   0  0  0  0  0  0  0  0  0  0  0  0
   -4.3430    3.1694    0.3494 H   0  0  0  0  0  0  0  0  0  0  0  0
   -3.4225    3.3264   -1.1384 H   0  0  0  0  0  0  0  0  0  0  0  0
    4.0955    0.2052   -1.2470 O   0  0  0  0  0  0  0  0  0  0  0  0
    4.7153    0.6262   -0.5999 H   0  0  0  0  0  0  0  0  0  0  0  0
  1  2  1  0
  2  3  1  0
  4  3  1  1
  4  5  1  0
  4  6  2  0
  7  8  1  0
  8  9  1  0
  9 10  1  0
 10 11  1  0
 11 12  1  0
 11 13  1  0
 10 14  1  0
 14 15  1  0
 14 16  1  0
  1 17  1  0
  1 18  1  0
  1 19  1  0
  2 20  1  0
  2 21  1  0
  5 22  1  0
  5 23  1  0
  5 24  1  0
  8 25  1  0
  8 26  1  0
  9 27  1  0
  9 28  1  0
 10 29  1  0
 11 30  1  0
 12 31  1  0
 12 32  1  0
 12 33  1  0
 13 34  1  0
 13 35  1  0
 13 36  1  0
 14 37  1  0
 15 38  1  0
 15 39  1  0
 15 40  1  0
 16 41  1  0
 16 42  1  0
 16 43  1  0
 44 45  1  0
  4 44  1  0
  4  7  1  0
M  CHG  1  10   1
M  END
$$$$
