VX
     RDKit          3D

 45 44  0  0  0  0  0  0  0  0999 V2000
    4.2636    1.6193    2.2764 C   0  0  0  0  0  0  0  0  0  0  0  0
    3.7606    1.2593    0.8945 C   0  0  0  0  0  0  0  0  0  0  0  0
    2.9931    0.0675    0.9856 O   0  0  0  0  0  0  0  0  0  0  0  0
    2.6875   -0.7349   -0.3845 P   0  0  0  0  0  0  0  0  0  0  0  0
    3.5466   -2.2687   -0.6786 C   0  0  0  0  0  0  0  0  0  0  0  0
    1.7070   -0.2172   -1.3977 O   0  0  0  0  0  0  0  0  0  0  0  0
    0.9508   -1.9144    0.6936 S   0  0  0  0  0  0  0  0  0  0  0  0
   -0.3798   -0.6835    0.6987 C   0  0  0  0  0  0  0  0  0  0  0  0
   -1.6591   -1.2785    1.2896 C   0  0  0  0  0  0  0  0  0  0  0  0
   -2.7709   -0.2265    1.4230 N   0  0  0  0  0  0  0  0  0  0  0  0
   -3.8188   -0.5520    2.5055 C   0  0  0  0  0  0  0  0  0  0  0  0
   -3.2980   -0.0536    3.8535 C   0  0  0  0  0  0  0  0  0  0  0  0
   -4.1758   -2.0370    2.5642 C   0  0  0  0  0  0  0  0  0  0  0  0
   -3.3394    0.2558    0.0773 C   0  0  0  0  0  0  0  0  0  0  0  0
   -3.9329    1.6557    0.2418 C   0  0  0  0  0  0  0  0  0  0  0  0
   -4.3372   -0.7238   -0.5244 C   0  0  0  0  0  0  0  0  0  0  0  0
    4.8267    2.5564    2.2547 H   0  0  0  0  0  0  0  0  0  0  0  0
    3.4307    1.7246    2.9790 H   0  0  0  0  0  0  0  0  0  0  0  0
    4.9108    0.8273    2.6691 H   0  0  0  0  0  0  0  0  0  0  0  0
    3.1225    2.0588    0.5032 H   0  0  0  0  0  0  0  0  0  0  0  0
    4.6042    1.1161    0.2113 H   0  0  0  0  0  0  0  0  0  0  0  0
    4.4942   -2.0950   -1.1952 H   0  0  0  0  0  0  0  0  0  0  0  0
    2.9385   -2.9343   -1.2979 H   0  0  0  0  0  0  0  0  0  0  0  0
    3.7602   -2.7782    0.2655 H   0  0  0  0  0  0  0  0  0  0  0  0
   -0.0507    0.1829    1.2815 H   0  0  0  0  0  0  0  0  0  0  0  0
   -0.5356   -0.3606   -0.3320 H   0  0  0  0  0  0  0  0  0  0  0  0
   -2.0542   -2.0986    0.6825 H   0  0  0  0  0  0  0  0  0  0  0  0
   -1.4506   -1.6402    2.3011 H   0  0  0  0  0  0  0  0  0  0  0  0
   -2.2833    0.6021    1.7881 H   0  0  0  0  0  0  0  0  0  0  0  0
   -4.7182    0.0204    2.2624 H   0  0  0  0  0  0  0  0  0  0  0  0
   -2.3770   -0.5642    4.1516 H   0  0  0  0  0  0  0  0  0  0  0  0
   -4.0430   -0.2242    4.6381 H   0  0  0  0  0  0  0  0  0  0  0  0
   -3.0946    1.0220    3.8210 H   0  0  0  0  0  0  0  0  0  0  0  0
   -3.3590   -2.6445    2.9672 H   0  0  0  0  0  0  0  0  0  0  0  0
   -5.0360   -2.1845    3.2273 H   0  0  0  0  0  0  0  0  0  0  0  0
   -4.4479   -2.4413    1.5861 H   0  0  0  0  0  0  0  0  0  0  0  0
   -2.4885    0.3479   -0.6019 H   0  0  0  0  0  0  0  0  0  0  0  0
   -4.1941    2.0698   -0.7387 H   0  0  0  0  0  0  0  0  0  0  0  0
   -3.2136    2.3392    0.7065 H   0  0  0  0  0  0  0  0  0  0  0  0
   -4.8448    1.6546    0.8464 H   0  0  0  0  0  0  0  0  0  0  0  0
   -4.6413   -0.3827   -1.5200 H   0  0  0  0  0  0  0  0  0  0  0  0
   -5.2486   -0.8058    0.0749 H   0  0  0  0  0  0  0  0  0  0  0  0
   -3.9054   -1.7218   -0.6434 H   0  0  0  0  0  0  0  0  0  0  0  0
    4.0857    0.2147   -1.2525 O   0  0  0  0  0  0  0  0  0  0  0  0
    4.7055    0.6356   -0.6053 H   0  0  0  0  0  0  0  0  0  0  0  0
  1  2  1  0
  2  3  1  0
  4  3  1  1
  4  5  1  0
  4  6  2  0
  7  8  1  0
  8  9  1  0
  9 10  1  0
 10 11  1  0
 11 12  1  0
 11 13  1  0
 10 14  1  0
 14 15  1  0
 14 16  1  0
  1 17  1  0
  1 18  1  0
  1 19  1  0
  2 20  1  0
  2 21  1  0
  5 22  1  0
  5 23  1  0
  5 24  1  0
  8 25  1  0
  8 26  1  0
  9 27  1  0
  9 28  1  0
 10 29  1  0
 11 30  1  0
 12 31  1  0
 12 32  1  0
 12 33  1  0
 13 34  1  0
 13 35  1  0
 13 36  1  0
 14 37  1  0
 15 38  1  0
 15 39  1  0
 15 40  1  0
 16 41  1  0
 16 42  1  0
 16 43  1  0
 44 45  1  0
  4 44  1  0
  4  7  1  0
M  CHG  1  10   1
M  END
$$$$
