VX
     RDKit          3D

 45 44  0  0  0  0  0  0  0  0999 V2000
    4.7849   -0.1050    2.5422 C   0  0  0  0  0  0  0  0  0  0  0  0
    3.4035   -0.5933    2.1562 C   0  0  0  0  0  0  0  0  0  0  0  0
    2.9817    0.0791    0.9800 O   0  0  0  0  0  0  0  0  0  0  0  0
    2.6949   -0.7421   -0.3804 P   0  0  0  0  0  0  0  0  0  0  0  0
    3.5465   -2.2767   -0.6875 C   0  0  0  0  0  0  0  0  0  0  0  0
    1.7110   -0.2136   -1.3873 O   0  0  0  0  0  0  0  0  0  0  0  0
    0.9582   -1.9215    0.6977 S   0  0  0  0  0  0  0  0  0  0  0  0
   -0.2588   -0.6565    1.1803 C   0  0  0  0  0  0  0  0  0  0  0  0
   -0.6931    0.2277    0.0032 C   0  0  0  0  0  0  0  0  0  0  0  0
   -1.8348    1.2076    0.3283 N   0  0  0  0  0  0  0  0  0  0  0  0
   -3.1802    0.5804    0.7583 C   0  0  0  0  0  0  0  0  0  0  0  0
   -3.2571    0.4872    2.2791 C   0  0  0  0  0  0  0  0  0  0  0  0
   -3.4846   -0.7282    0.0370 C   0  0  0  0  0  0  0  0  0  0  0  0
   -2.0807    2.2599   -0.7973 C   0  0  0  0  0  0  0  0  0  0  0  0
   -0.8129    2.6333   -1.5669 C   0  0  0  0  0  0  0  0  0  0  0  0
   -2.6505    3.5314   -0.1546 C   0  0  0  0  0  0  0  0  0  0  0  0
    5.5044   -0.3000    1.7402 H   0  0  0  0  0  0  0  0  0  0  0  0
    4.7799    0.9760    2.7091 H   0  0  0  0  0  0  0  0  0  0  0  0
    5.1318   -0.5995    3.4536 H   0  0  0  0  0  0  0  0  0  0  0  0
    2.6877   -0.3609    2.9511 H   0  0  0  0  0  0  0  0  0  0  0  0
    3.4052   -1.6777    2.0159 H   0  0  0  0  0  0  0  0  0  0  0  0
    3.7374   -2.8306    0.2358 H   0  0  0  0  0  0  0  0  0  0  0  0
    2.9486   -2.9152   -1.3449 H   0  0  0  0  0  0  0  0  0  0  0  0
    4.5043   -2.0885   -1.1816 H   0  0  0  0  0  0  0  0  0  0  0  0
    0.1728   -0.0398    1.9755 H   0  0  0  0  0  0  0  0  0  0  0  0
   -1.0924   -1.2123    1.6051 H   0  0  0  0  0  0  0  0  0  0  0  0
   -0.9933   -0.3425   -0.8814 H   0  0  0  0  0  0  0  0  0  0  0  0
    0.1571    0.8658   -0.2274 H   0  0  0  0  0  0  0  0  0  0  0  0
   -1.4879    1.7593    1.1235 H   0  0  0  0  0  0  0  0  0  0  0  0
   -3.9625    1.2857    0.4603 H   0  0  0  0  0  0  0  0  0  0  0  0
   -4.2467    0.1276    2.5840 H   0  0  0  0  0  0  0  0  0  0  0  0
   -3.1128    1.4738    2.7345 H   0  0  0  0  0  0  0  0  0  0  0  0
   -2.5199   -0.1896    2.7125 H   0  0  0  0  0  0  0  0  0  0  0  0
   -4.5066   -1.0503    0.2665 H   0  0  0  0  0  0  0  0  0  0  0  0
   -3.4200   -0.6051   -1.0494 H   0  0  0  0  0  0  0  0  0  0  0  0
   -2.8232   -1.5460    0.3335 H   0  0  0  0  0  0  0  0  0  0  0  0
   -2.8034    1.8152   -1.4909 H   0  0  0  0  0  0  0  0  0  0  0  0
   -0.4347    1.7917   -2.1550 H   0  0  0  0  0  0  0  0  0  0  0  0
   -1.0222    3.4402   -2.2799 H   0  0  0  0  0  0  0  0  0  0  0  0
   -0.0225    2.9881   -0.8957 H   0  0  0  0  0  0  0  0  0  0  0  0
   -1.9323    3.9739    0.5447 H   0  0  0  0  0  0  0  0  0  0  0  0
   -2.8709    4.2818   -0.9221 H   0  0  0  0  0  0  0  0  0  0  0  0
   -3.5781    3.3526    0.3945 H   0  0  0  0  0  0  0  0  0  0  0  0
    4.0931    0.2074   -1.2484 O   0  0  0  0  0  0  0  0  0  0  0  0
    4.7129    0.6284   -0.6013 H   0  0  0  0  0  0  0  0  0  0  0  0
  1  2  1  0
  2  3  1  0
  4  3  1  1
  4  5  1  0
  4  6  2  0
  7  8  1  0
  8  9  1  0
  9 10  1  0
 10 11  1  0
 11 12  1  0
 11 13  1  0
 10 14  1  0
 14 15  1  0
 14 16  1  0
  1 17  1  0
  1 18  1  0
  1 19  1  0
  2 20  1  0
  2 21  1  0
  5 22  1  0
  5 23  1  0
  5 24  1  0
  8 25  1  0
  8 26  1  0
  9 27  1  0
  9 28  1  0
 10 29  1  0
 11 30  1  0
 12 31  1  0
 12 32  1  0
 12 33  1  0
 13 34  1  0
 13 35  1  0
 13 36  1  0
 14 37  1  0
 15 38  1  0
 15 39  1  0
 15 40  1  0
 16 41  1  0
 16 42  1  0
 16 43  1  0
 44 45  1  0
  4 44  1  0
  4  7  1  0
M  CHG  1  10   1
M  END
$$$$
