VX
     RDKit          3D

 45 44  0  0  0  0  0  0  0  0999 V2000
    2.9698    2.4450    1.1812 C   0  0  0  0  0  0  0  0  0  0  0  0
    3.8232    1.2181    0.9406 C   0  0  0  0  0  0  0  0  0  0  0  0
    2.9889    0.0716    0.9832 O   0  0  0  0  0  0  0  0  0  0  0  0
    2.6908   -0.7383   -0.3829 P   0  0  0  0  0  0  0  0  0  0  0  0
    3.5458   -2.2705   -0.6818 C   0  0  0  0  0  0  0  0  0  0  0  0
    1.7087   -0.2162   -1.3937 O   0  0  0  0  0  0  0  0  0  0  0  0
    0.9541   -1.9177    0.6952 S   0  0  0  0  0  0  0  0  0  0  0  0
   -0.2902   -0.6168    0.9568 C   0  0  0  0  0  0  0  0  0  0  0  0
   -1.2004   -0.4993   -0.2742 C   0  0  0  0  0  0  0  0  0  0  0  0
   -2.3119    0.5576   -0.1335 N   0  0  0  0  0  0  0  0  0  0  0  0
   -1.7562    1.9746    0.1838 C   0  0  0  0  0  0  0  0  0  0  0  0
   -2.8526    3.0384    0.1576 C   0  0  0  0  0  0  0  0  0  0  0  0
   -0.6899    2.3685   -0.8436 C   0  0  0  0  0  0  0  0  0  0  0  0
   -3.5427    0.1562    0.7190 C   0  0  0  0  0  0  0  0  0  0  0  0
   -4.8127    0.4621   -0.0873 C   0  0  0  0  0  0  0  0  0  0  0  0
   -3.5998   -1.3184    1.1152 C   0  0  0  0  0  0  0  0  0  0  0  0
    2.2650    2.5815    0.3548 H   0  0  0  0  0  0  0  0  0  0  0  0
    2.3775    2.3406    2.0969 H   0  0  0  0  0  0  0  0  0  0  0  0
    3.5903    3.3422    1.2599 H   0  0  0  0  0  0  0  0  0  0  0  0
    4.3470    1.2917   -0.0172 H   0  0  0  0  0  0  0  0  0  0  0  0
    4.5729    1.1211    1.7317 H   0  0  0  0  0  0  0  0  0  0  0  0
    4.5092   -2.0944   -1.1685 H   0  0  0  0  0  0  0  0  0  0  0  0
    2.9535   -2.9243   -1.3287 H   0  0  0  0  0  0  0  0  0  0  0  0
    3.7297   -2.7947    0.2607 H   0  0  0  0  0  0  0  0  0  0  0  0
   -0.8486   -0.8624    1.8613 H   0  0  0  0  0  0  0  0  0  0  0  0
    0.2451    0.3131    1.1577 H   0  0  0  0  0  0  0  0  0  0  0  0
   -0.6394   -0.2254   -1.1749 H   0  0  0  0  0  0  0  0  0  0  0  0
   -1.6854   -1.4465   -0.5184 H   0  0  0  0  0  0  0  0  0  0  0  0
   -2.6701    0.6312   -1.0963 H   0  0  0  0  0  0  0  0  0  0  0  0
   -1.3276    1.9250    1.1930 H   0  0  0  0  0  0  0  0  0  0  0  0
   -3.3513    3.0795   -0.8170 H   0  0  0  0  0  0  0  0  0  0  0  0
   -3.6034    2.8798    0.9378 H   0  0  0  0  0  0  0  0  0  0  0  0
   -2.4206    4.0292    0.3457 H   0  0  0  0  0  0  0  0  0  0  0  0
    0.2170    1.7718   -0.7321 H   0  0  0  0  0  0  0  0  0  0  0  0
   -0.3846    3.4141   -0.7114 H   0  0  0  0  0  0  0  0  0  0  0  0
   -1.0601    2.2530   -1.8650 H   0  0  0  0  0  0  0  0  0  0  0  0
   -3.5016    0.7578    1.6334 H   0  0  0  0  0  0  0  0  0  0  0  0
   -5.7024    0.3185    0.5339 H   0  0  0  0  0  0  0  0  0  0  0  0
   -4.8988   -0.2037   -0.9532 H   0  0  0  0  0  0  0  0  0  0  0  0
   -4.8482    1.4833   -0.4630 H   0  0  0  0  0  0  0  0  0  0  0  0
   -3.6414   -1.9791    0.2428 H   0  0  0  0  0  0  0  0  0  0  0  0
   -4.5086   -1.5088    1.7003 H   0  0  0  0  0  0  0  0  0  0  0  0
   -2.7664   -1.6184    1.7475 H   0  0  0  0  0  0  0  0  0  0  0  0
    4.0890    0.2112   -1.2509 O   0  0  0  0  0  0  0  0  0  0  0  0
    4.7088    0.6322   -0.6038 H   0  0  0  0  0  0  0  0  0  0  0  0
  1  2  1  0
  2  3  1  0
  4  3  1  1
  4  5  1  0
  4  6  2  0
  7  8  1  0
  8  9  1  0
  9 10  1  0
 10 11  1  0
 11 12  1  0
 11 13  1  0
 10 14  1  0
 14 15  1  0
 14 16  1  0
  1 17  1  0
  1 18  1  0
  1 19  1  0
  2 20  1  0
  2 21  1  0
  5 22  1  0
  5 23  1  0
  5 24  1  0
  8 25  1  0
  8 26  1  0
  9 27  1  0
  9 28  1  0
 10 29  1  0
 11 30  1  0
 12 31  1  0
 12 32  1  0
 12 33  1  0
 13 34  1  0
 13 35  1  0
 13 36  1  0
 14 37  1  0
 15 38  1  0
 15 39  1  0
 15 40  1  0
 16 41  1  0
 16 42  1  0
 16 43  1  0
 44 45  1  0
  4 44  1  0
  4  7  1  0
M  CHG  1  10   1
M  END
$$$$
