VX
     RDKit          3D

 45 44  0  0  0  0  0  0  0  0999 V2000
    3.6374   -2.4772    0.4592 C   0  0  0  0  0  0  0  0  0  0  0  0
    3.6373   -1.0946    1.0865 C   0  0  0  0  0  0  0  0  0  0  0  0
    2.9946   -0.1983    0.1942 O   0  0  0  0  0  0  0  0  0  0  0  0
    2.8397    1.3645    0.5755 P   0  0  0  0  0  0  0  0  0  0  0  0
    4.0415    2.1345    1.6441 C   0  0  0  0  0  0  0  0  0  0  0  0
    1.6891    2.1694    0.0340 O   0  0  0  0  0  0  0  0  0  0  0  0
    1.5428    0.7768    2.4576 S   0  0  0  0  0  0  0  0  0  0  0  0
   -0.0573    1.5756    2.1230 C   0  0  0  0  0  0  0  0  0  0  0  0
   -0.7264    1.1109    0.8146 C   0  0  0  0  0  0  0  0  0  0  0  0
   -2.0253    0.3012    1.0304 N   0  0  0  0  0  0  0  0  0  0  0  0
   -2.9769    0.2676   -0.2043 C   0  0  0  0  0  0  0  0  0  0  0  0
   -4.4220    0.1240    0.2946 C   0  0  0  0  0  0  0  0  0  0  0  0
   -2.8908    1.5172   -1.0802 C   0  0  0  0  0  0  0  0  0  0  0  0
   -1.8342   -1.1353    1.5781 C   0  0  0  0  0  0  0  0  0  0  0  0
   -1.6991   -1.1345    3.0964 C   0  0  0  0  0  0  0  0  0  0  0  0
   -0.7172   -1.8965    0.8702 C   0  0  0  0  0  0  0  0  0  0  0  0
    4.1906   -2.4681   -0.4880 H   0  0  0  0  0  0  0  0  0  0  0  0
    4.0993   -3.2062    1.1315 H   0  0  0  0  0  0  0  0  0  0  0  0
    2.6148   -2.8003    0.2298 H   0  0  0  0  0  0  0  0  0  0  0  0
    4.6675   -0.7693    1.2659 H   0  0  0  0  0  0  0  0  0  0  0  0
    3.1007   -1.1177    2.0399 H   0  0  0  0  0  0  0  0  0  0  0  0
    4.3807    1.4463    2.4243 H   0  0  0  0  0  0  0  0  0  0  0  0
    4.9145    2.4643    1.0730 H   0  0  0  0  0  0  0  0  0  0  0  0
    3.6108    3.0088    2.1388 H   0  0  0  0  0  0  0  0  0  0  0  0
    0.1585    2.6478    2.0466 H   0  0  0  0  0  0  0  0  0  0  0  0
   -0.7154    1.4623    2.9888 H   0  0  0  0  0  0  0  0  0  0  0  0
   -1.0219    2.0347    0.3152 H   0  0  0  0  0  0  0  0  0  0  0  0
   -0.0930    0.5388    0.1315 H   0  0  0  0  0  0  0  0  0  0  0  0
   -2.5470    0.8252    1.7456 H   0  0  0  0  0  0  0  0  0  0  0  0
   -2.6907   -0.6041   -0.8034 H   0  0  0  0  0  0  0  0  0  0  0  0
   -5.1121    0.0753   -0.5559 H   0  0  0  0  0  0  0  0  0  0  0  0
   -4.7182    0.9766    0.9135 H   0  0  0  0  0  0  0  0  0  0  0  0
   -4.5810   -0.7841    0.8818 H   0  0  0  0  0  0  0  0  0  0  0  0
   -1.9164    1.6010   -1.5686 H   0  0  0  0  0  0  0  0  0  0  0  0
   -3.0879    2.4297   -0.5073 H   0  0  0  0  0  0  0  0  0  0  0  0
   -3.6324    1.4687   -1.8858 H   0  0  0  0  0  0  0  0  0  0  0  0
   -2.7675   -1.6652    1.3642 H   0  0  0  0  0  0  0  0  0  0  0  0
   -1.8096   -2.1551    3.4798 H   0  0  0  0  0  0  0  0  0  0  0  0
   -2.4767   -0.5243    3.5655 H   0  0  0  0  0  0  0  0  0  0  0  0
   -0.7266   -0.7795    3.4375 H   0  0  0  0  0  0  0  0  0  0  0  0
    0.2760   -1.5336    1.1424 H   0  0  0  0  0  0  0  0  0  0  0  0
   -0.7551   -2.9561    1.1497 H   0  0  0  0  0  0  0  0  0  0  0  0
   -0.8126   -1.8442   -0.2185 H   0  0  0  0  0  0  0  0  0  0  0  0
    3.8838    1.8376   -0.9397 O   0  0  0  0  0  0  0  0  0  0  0  0
    4.7544    2.2321   -0.6817 H   0  0  0  0  0  0  0  0  0  0  0  0
  1  2  1  0
  2  3  1  0
  4  3  1  1
  4  5  1  0
  4  6  2  0
  7  8  1  0
  8  9  1  0
  9 10  1  0
 10 11  1  0
 11 12  1  0
 11 13  1  0
 10 14  1  0
 14 15  1  0
 14 16  1  0
  1 17  1  0
  1 18  1  0
  1 19  1  0
  2 20  1  0
  2 21  1  0
  5 22  1  0
  5 23  1  0
  5 24  1  0
  8 25  1  0
  8 26  1  0
  9 27  1  0
  9 28  1  0
 10 29  1  0
 11 30  1  0
 12 31  1  0
 12 32  1  0
 12 33  1  0
 13 34  1  0
 13 35  1  0
 13 36  1  0
 14 37  1  0
 15 38  1  0
 15 39  1  0
 15 40  1  0
 16 41  1  0
 16 42  1  0
 16 43  1  0
 44 45  1  0
  4 44  1  0
  4  7  1  0
M  CHG  1  10   1
M  END
$$$$
