VX
     RDKit          3D

 45 44  0  0  0  0  0  0  0  0999 V2000
    3.3379   -2.4934    0.7239 C   0  0  0  0  0  0  0  0  0  0  0  0
    3.7481   -1.0660    1.0210 C   0  0  0  0  0  0  0  0  0  0  0  0
    2.9924   -0.1971    0.1931 O   0  0  0  0  0  0  0  0  0  0  0  0
    2.8411    1.3641    0.5764 P   0  0  0  0  0  0  0  0  0  0  0  0
    4.0412    2.1356    1.6442 C   0  0  0  0  0  0  0  0  0  0  0  0
    1.6901    2.1674    0.0340 O   0  0  0  0  0  0  0  0  0  0  0  0
    1.5443    0.7764    2.4585 S   0  0  0  0  0  0  0  0  0  0  0  0
   -0.0633    0.3822    1.7121 C   0  0  0  0  0  0  0  0  0  0  0  0
   -0.8917    1.6501    1.4579 C   0  0  0  0  0  0  0  0  0  0  0  0
   -2.1605    1.3199    0.6550 N   0  0  0  0  0  0  0  0  0  0  0  0
   -3.4826    1.3633    1.4323 C   0  0  0  0  0  0  0  0  0  0  0  0
   -3.8656    2.7698    1.8724 C   0  0  0  0  0  0  0  0  0  0  0  0
   -3.4280    0.3914    2.6102 C   0  0  0  0  0  0  0  0  0  0  0  0
   -2.2410    1.9583   -0.7469 C   0  0  0  0  0  0  0  0  0  0  0  0
   -1.3850    1.1374   -1.7110 C   0  0  0  0  0  0  0  0  0  0  0  0
   -1.8511    3.4343   -0.7768 C   0  0  0  0  0  0  0  0  0  0  0  0
    3.5020   -2.7307   -0.3324 H   0  0  0  0  0  0  0  0  0  0  0  0
    2.2699   -2.6356    0.9200 H   0  0  0  0  0  0  0  0  0  0  0  0
    3.9063   -3.1987    1.3365 H   0  0  0  0  0  0  0  0  0  0  0  0
    3.5719   -0.8381    2.0762 H   0  0  0  0  0  0  0  0  0  0  0  0
    4.8112   -0.9282    0.8021 H   0  0  0  0  0  0  0  0  0  0  0  0
    4.8928    2.4991    1.0624 H   0  0  0  0  0  0  0  0  0  0  0  0
    3.5940    2.9883    2.1632 H   0  0  0  0  0  0  0  0  0  0  0  0
    4.4120    1.4385    2.4005 H   0  0  0  0  0  0  0  0  0  0  0  0
    0.1138   -0.1651    0.7809 H   0  0  0  0  0  0  0  0  0  0  0  0
   -0.5964   -0.2887    2.3919 H   0  0  0  0  0  0  0  0  0  0  0  0
   -0.3261    2.3936    0.9038 H   0  0  0  0  0  0  0  0  0  0  0  0
   -1.1954    2.1113    2.4018 H   0  0  0  0  0  0  0  0  0  0  0  0
   -2.0800    0.3198    0.4342 H   0  0  0  0  0  0  0  0  0  0  0  0
   -4.2432    0.9879    0.7368 H   0  0  0  0  0  0  0  0  0  0  0  0
   -3.0744    3.2661    2.4406 H   0  0  0  0  0  0  0  0  0  0  0  0
   -4.1234    3.3957    1.0135 H   0  0  0  0  0  0  0  0  0  0  0  0
   -4.7565    2.7381    2.5100 H   0  0  0  0  0  0  0  0  0  0  0  0
   -4.4171    0.3031    3.0731 H   0  0  0  0  0  0  0  0  0  0  0  0
   -2.7344    0.7223    3.3891 H   0  0  0  0  0  0  0  0  0  0  0  0
   -3.1294   -0.6103    2.2832 H   0  0  0  0  0  0  0  0  0  0  0  0
   -3.2870    1.8603   -1.0597 H   0  0  0  0  0  0  0  0  0  0  0  0
   -0.3280    1.1519   -1.4303 H   0  0  0  0  0  0  0  0  0  0  0  0
   -1.7137    0.0929   -1.7380 H   0  0  0  0  0  0  0  0  0  0  0  0
   -1.4667    1.5351   -2.7283 H   0  0  0  0  0  0  0  0  0  0  0  0
   -2.2567    4.0026    0.0617 H   0  0  0  0  0  0  0  0  0  0  0  0
   -2.2288    3.8935   -1.6977 H   0  0  0  0  0  0  0  0  0  0  0  0
   -0.7655    3.5763   -0.7876 H   0  0  0  0  0  0  0  0  0  0  0  0
    3.8852    1.8373   -0.9389 O   0  0  0  0  0  0  0  0  0  0  0  0
    4.7557    2.2318   -0.6809 H   0  0  0  0  0  0  0  0  0  0  0  0
  1  2  1  0
  2  3  1  0
  4  3  1  1
  4  5  1  0
  4  6  2  0
  7  8  1  0
  8  9  1  0
  9 10  1  0
 10 11  1  0
 11 12  1  0
 11 13  1  0
 10 14  1  0
 14 15  1  0
 14 16  1  0
  1 17  1  0
  1 18  1  0
  1 19  1  0
  2 20  1  0
  2 21  1  0
  5 22  1  0
  5 23  1  0
  5 24  1  0
  8 25  1  0
  8 26  1  0
  9 27  1  0
  9 28  1  0
 10 29  1  0
 11 30  1  0
 12 31  1  0
 12 32  1  0
 12 33  1  0
 13 34  1  0
 13 35  1  0
 13 36  1  0
 14 37  1  0
 15 38  1  0
 15 39  1  0
 15 40  1  0
 16 41  1  0
 16 42  1  0
 16 43  1  0
 44 45  1  0
  4 44  1  0
  4  7  1  0
M  CHG  1  10   1
M  END
$$$$
