RVX
     RDKit          3D

 45 44  0  0  0  0  0  0  0  0999 V2000
   -3.1144   -0.5203    0.0194 C   0  0  0  0  0  0  0  0  0  0  0  0
   -3.6434    0.7348    0.6878 C   0  0  0  0  0  0  0  0  0  0  0  0
   -2.5961    1.4042    1.5599 N   0  0  0  0  0  0  0  0  0  0  0  0
   -3.2476    2.4261    2.4802 C   0  0  0  0  0  0  0  0  0  0  0  0
   -2.3911    2.6764    3.7103 C   0  0  0  0  0  0  0  0  0  0  0  0
   -1.4139    1.9894    0.7835 C   0  0  0  0  0  0  0  0  0  0  0  0
   -0.2309    1.0180    0.7088 C   0  0  0  0  0  0  0  0  0  0  0  0
    0.1111    0.2183    2.3107 S   0  0  0  0  0  0  0  0  0  0  0  0
    1.5546   -1.5287    1.6521 P   0  0  0  0  0  0  0  0  0  0  0  0
    0.4956   -2.0532    0.7224 O   0  0  0  0  0  0  0  0  0  0  0  0
    1.6261   -2.1054    3.3383 C   0  0  0  0  0  0  0  0  0  0  0  0
    2.6501   -0.4430    1.1733 O   0  0  0  0  0  0  0  0  0  0  0  0
    3.6952   -0.8836    0.3147 C   0  0  0  0  0  0  0  0  0  0  0  0
    4.7858    0.1914    0.2443 C   0  0  0  0  0  0  0  0  0  0  0  0
    5.9615   -0.3014   -0.5976 C   0  0  0  0  0  0  0  0  0  0  0  0
    4.2412    1.5075   -0.3158 C   0  0  0  0  0  0  0  0  0  0  0  0
   -2.6312   -1.1875    0.7406 H   0  0  0  0  0  0  0  0  0  0  0  0
   -3.9426   -1.0697   -0.4434 H   0  0  0  0  0  0  0  0  0  0  0  0
   -2.4058   -0.2833   -0.7798 H   0  0  0  0  0  0  0  0  0  0  0  0
   -4.4774    0.4595    1.3437 H   0  0  0  0  0  0  0  0  0  0  0  0
   -3.9923    1.4724   -0.0449 H   0  0  0  0  0  0  0  0  0  0  0  0
   -2.1986    0.6738    2.1748 H   0  0  0  0  0  0  0  0  0  0  0  0
   -4.2121    2.0168    2.8022 H   0  0  0  0  0  0  0  0  0  0  0  0
   -3.4223    3.3390    1.9006 H   0  0  0  0  0  0  0  0  0  0  0  0
   -2.2040    1.7435    4.2556 H   0  0  0  0  0  0  0  0  0  0  0  0
   -1.4260    3.1302    3.4606 H   0  0  0  0  0  0  0  0  0  0  0  0
   -2.9116    3.3613    4.3917 H   0  0  0  0  0  0  0  0  0  0  0  0
   -1.7689    2.2747   -0.2128 H   0  0  0  0  0  0  0  0  0  0  0  0
   -1.0964    2.9050    1.2924 H   0  0  0  0  0  0  0  0  0  0  0  0
    0.6681    1.5487    0.3735 H   0  0  0  0  0  0  0  0  0  0  0  0
   -0.4266    0.2379   -0.0314 H   0  0  0  0  0  0  0  0  0  0  0  0
    2.2655   -2.9883    3.4245 H   0  0  0  0  0  0  0  0  0  0  0  0
    2.0259   -1.3266    3.9965 H   0  0  0  0  0  0  0  0  0  0  0  0
    0.6235   -2.3756    3.6884 H   0  0  0  0  0  0  0  0  0  0  0  0
    4.1140   -1.8179    0.7022 H   0  0  0  0  0  0  0  0  0  0  0  0
    3.2758   -1.0778   -0.6785 H   0  0  0  0  0  0  0  0  0  0  0  0
    5.1404    0.3913    1.2629 H   0  0  0  0  0  0  0  0  0  0  0  0
    5.6467   -0.5357   -1.6201 H   0  0  0  0  0  0  0  0  0  0  0  0
    6.3988   -1.2067   -0.1626 H   0  0  0  0  0  0  0  0  0  0  0  0
    6.7489    0.4575   -0.6526 H   0  0  0  0  0  0  0  0  0  0  0  0
    5.0298    2.2706   -0.3442 H   0  0  0  0  0  0  0  0  0  0  0  0
    3.8604    1.3779   -1.3348 H   0  0  0  0  0  0  0  0  0  0  0  0
    3.4270    1.8981    0.3056 H   0  0  0  0  0  0  0  0  0  0  0  0
    2.7168   -2.9352    1.1219 O   0  0  0  0  0  0  0  0  0  0  0  0
    3.1068   -3.4072    1.8998 H   0  0  0  0  0  0  0  0  0  0  0  0
  1  2  1  0
  2  3  1  0
  3  4  1  0
  4  5  1  0
  3  6  1  0
  6  7  1  0
  7  8  1  0
  9 10  2  0
  9 11  1  0
  9 12  1  6
 12 13  1  0
 13 14  1  0
 14 15  1  0
 14 16  1  0
  1 17  1  0
  1 18  1  0
  1 19  1  0
  2 20  1  0
  2 21  1  0
  3 22  1  0
  4 23  1  0
  4 24  1  0
  5 25  1  0
  5 26  1  0
  5 27  1  0
  6 28  1  0
  6 29  1  0
  7 30  1  0
  7 31  1  0
 11 32  1  0
 11 33  1  0
 11 34  1  0
 13 35  1  0
 13 36  1  0
 14 37  1  0
 15 38  1  0
 15 39  1  0
 15 40  1  0
 16 41  1  0
 16 42  1  0
 16 43  1  0
 44 45  1  0
  9 44  1  0
  9  8  1  0
M  CHG  1   3   1
M  END
$$$$
