VX
     RDKit          3D

 45 44  0  0  0  0  0  0  0  0999 V2000
    4.0657    1.7205    2.3216 C   0  0  0  0  0  0  0  0  0  0  0  0
    3.8049    1.2243    0.9146 C   0  0  0  0  0  0  0  0  0  0  0  0
    3.0024    0.0554    0.9873 O   0  0  0  0  0  0  0  0  0  0  0  0
    2.6813   -0.7279   -0.3868 P   0  0  0  0  0  0  0  0  0  0  0  0
    3.5475   -2.2618   -0.6696 C   0  0  0  0  0  0  0  0  0  0  0  0
    1.7031   -0.2191   -1.4061 O   0  0  0  0  0  0  0  0  0  0  0  0
    0.9446   -1.9074    0.6913 S   0  0  0  0  0  0  0  0  0  0  0  0
   -0.0750   -2.5160   -0.6911 C   0  0  0  0  0  0  0  0  0  0  0  0
   -1.4795   -2.8724   -0.1993 C   0  0  0  0  0  0  0  0  0  0  0  0
   -2.1288   -1.7179    0.5811 N   0  0  0  0  0  0  0  0  0  0  0  0
   -2.6862   -0.5322   -0.2274 C   0  0  0  0  0  0  0  0  0  0  0  0
   -1.6522    0.5888   -0.2890 C   0  0  0  0  0  0  0  0  0  0  0  0
   -3.1773   -0.9271   -1.6157 C   0  0  0  0  0  0  0  0  0  0  0  0
   -3.0477   -2.2368    1.6956 C   0  0  0  0  0  0  0  0  0  0  0  0
   -3.2230   -1.1721    2.7774 C   0  0  0  0  0  0  0  0  0  0  0  0
   -4.3745   -2.7368    1.1389 C   0  0  0  0  0  0  0  0  0  0  0  0
    4.5782    0.9537    2.9118 H   0  0  0  0  0  0  0  0  0  0  0  0
    4.6797    2.6253    2.3090 H   0  0  0  0  0  0  0  0  0  0  0  0
    3.1233    1.9398    2.8343 H   0  0  0  0  0  0  0  0  0  0  0  0
    4.7507    0.9939    0.4157 H   0  0  0  0  0  0  0  0  0  0  0  0
    3.2756    1.9891    0.3381 H   0  0  0  0  0  0  0  0  0  0  0  0
    3.7735   -2.7590    0.2779 H   0  0  0  0  0  0  0  0  0  0  0  0
    4.4878   -2.0883   -1.1994 H   0  0  0  0  0  0  0  0  0  0  0  0
    2.9374   -2.9379   -1.2755 H   0  0  0  0  0  0  0  0  0  0  0  0
    0.4081   -3.3986   -1.1213 H   0  0  0  0  0  0  0  0  0  0  0  0
   -0.1296   -1.7582   -1.4749 H   0  0  0  0  0  0  0  0  0  0  0  0
   -1.4043   -3.7257    0.4851 H   0  0  0  0  0  0  0  0  0  0  0  0
   -2.1454   -3.1707   -1.0126 H   0  0  0  0  0  0  0  0  0  0  0  0
   -1.3228   -1.3360    1.1045 H   0  0  0  0  0  0  0  0  0  0  0  0
   -3.5431   -0.1439    0.3295 H   0  0  0  0  0  0  0  0  0  0  0  0
   -2.0972    1.4880   -0.7295 H   0  0  0  0  0  0  0  0  0  0  0  0
   -1.2958    0.8572    0.7112 H   0  0  0  0  0  0  0  0  0  0  0  0
   -0.7906    0.3226   -0.9041 H   0  0  0  0  0  0  0  0  0  0  0  0
   -3.9084   -1.7396   -1.5711 H   0  0  0  0  0  0  0  0  0  0  0  0
   -2.3576   -1.2285   -2.2748 H   0  0  0  0  0  0  0  0  0  0  0  0
   -3.6719   -0.0738   -2.0935 H   0  0  0  0  0  0  0  0  0  0  0  0
   -2.5143   -3.0755    2.1587 H   0  0  0  0  0  0  0  0  0  0  0  0
   -3.7360   -1.6015    3.6451 H   0  0  0  0  0  0  0  0  0  0  0  0
   -3.8211   -0.3210    2.4401 H   0  0  0  0  0  0  0  0  0  0  0  0
   -2.2539   -0.7951    3.1209 H   0  0  0  0  0  0  0  0  0  0  0  0
   -4.9663   -3.1992    1.9366 H   0  0  0  0  0  0  0  0  0  0  0  0
   -4.2237   -3.4938    0.3631 H   0  0  0  0  0  0  0  0  0  0  0  0
   -4.9779   -1.9274    0.7169 H   0  0  0  0  0  0  0  0  0  0  0  0
    4.0795    0.2217   -1.2548 O   0  0  0  0  0  0  0  0  0  0  0  0
    4.6993    0.6426   -0.6076 H   0  0  0  0  0  0  0  0  0  0  0  0
  1  2  1  0
  2  3  1  0
  4  3  1  1
  4  5  1  0
  4  6  2  0
  7  8  1  0
  8  9  1  0
  9 10  1  0
 10 11  1  0
 11 12  1  0
 11 13  1  0
 10 14  1  0
 14 15  1  0
 14 16  1  0
  1 17  1  0
  1 18  1  0
  1 19  1  0
  2 20  1  0
  2 21  1  0
  5 22  1  0
  5 23  1  0
  5 24  1  0
  8 25  1  0
  8 26  1  0
  9 27  1  0
  9 28  1  0
 10 29  1  0
 11 30  1  0
 12 31  1  0
 12 32  1  0
 12 33  1  0
 13 34  1  0
 13 35  1  0
 13 36  1  0
 14 37  1  0
 15 38  1  0
 15 39  1  0
 15 40  1  0
 16 41  1  0
 16 42  1  0
 16 43  1  0
 44 45  1  0
  4 44  1  0
  4  7  1  0
M  CHG  1  10   1
M  END
$$$$
