VX
     RDKit          3D

 45 44  0  0  0  0  0  0  0  0999 V2000
    4.6667    0.0122    2.6630 C   0  0  0  0  0  0  0  0  0  0  0  0
    3.3669   -0.5863    2.1682 C   0  0  0  0  0  0  0  0  0  0  0  0
    2.9786    0.0827    0.9789 O   0  0  0  0  0  0  0  0  0  0  0  0
    2.6971   -0.7443   -0.3793 P   0  0  0  0  0  0  0  0  0  0  0  0
    3.5465   -2.2792   -0.6902 C   0  0  0  0  0  0  0  0  0  0  0  0
    1.7120   -0.2126   -1.3846 O   0  0  0  0  0  0  0  0  0  0  0  0
    0.9604   -1.9237    0.6988 S   0  0  0  0  0  0  0  0  0  0  0  0
   -0.5494   -1.1271    0.0627 C   0  0  0  0  0  0  0  0  0  0  0  0
   -0.6207    0.3513    0.4694 C   0  0  0  0  0  0  0  0  0  0  0  0
   -1.8284    1.1223   -0.0970 N   0  0  0  0  0  0  0  0  0  0  0  0
   -3.1894    0.4279    0.1249 C   0  0  0  0  0  0  0  0  0  0  0  0
   -3.4030    0.1850    1.6231 C   0  0  0  0  0  0  0  0  0  0  0  0
   -4.3443    1.2866   -0.3956 C   0  0  0  0  0  0  0  0  0  0  0  0
   -1.6118    1.7442   -1.4928 C   0  0  0  0  0  0  0  0  0  0  0  0
   -0.4380    2.7238   -1.4828 C   0  0  0  0  0  0  0  0  0  0  0  0
   -1.4935    0.7051   -2.5955 C   0  0  0  0  0  0  0  0  0  0  0  0
    4.5568    1.0887    2.8294 H   0  0  0  0  0  0  0  0  0  0  0  0
    5.4586   -0.1152    1.9179 H   0  0  0  0  0  0  0  0  0  0  0  0
    4.9827   -0.4585    3.5979 H   0  0  0  0  0  0  0  0  0  0  0  0
    2.5773   -0.4392    2.9113 H   0  0  0  0  0  0  0  0  0  0  0  0
    3.4796   -1.6618    2.0057 H   0  0  0  0  0  0  0  0  0  0  0  0
    4.5151   -2.0894   -1.1612 H   0  0  0  0  0  0  0  0  0  0  0  0
    2.9568   -2.9055   -1.3661 H   0  0  0  0  0  0  0  0  0  0  0  0
    3.7166   -2.8463    0.2283 H   0  0  0  0  0  0  0  0  0  0  0  0
   -0.5686   -1.2641   -1.0181 H   0  0  0  0  0  0  0  0  0  0  0  0
   -1.3936   -1.6865    0.4738 H   0  0  0  0  0  0  0  0  0  0  0  0
   -0.7034    0.4376    1.5594 H   0  0  0  0  0  0  0  0  0  0  0  0
    0.2733    0.9115    0.1973 H   0  0  0  0  0  0  0  0  0  0  0  0
   -1.8781    1.9538    0.5071 H   0  0  0  0  0  0  0  0  0  0  0  0
   -3.1656   -0.5212   -0.4191 H   0  0  0  0  0  0  0  0  0  0  0  0
   -4.3975   -0.2372    1.8063 H   0  0  0  0  0  0  0  0  0  0  0  0
   -3.3254    1.1174    2.1933 H   0  0  0  0  0  0  0  0  0  0  0  0
   -2.6832   -0.5269    2.0353 H   0  0  0  0  0  0  0  0  0  0  0  0
   -5.3083    0.8603   -0.0952 H   0  0  0  0  0  0  0  0  0  0  0  0
   -4.2952    2.3089   -0.0057 H   0  0  0  0  0  0  0  0  0  0  0  0
   -4.3569    1.3261   -1.4892 H   0  0  0  0  0  0  0  0  0  0  0  0
   -2.4978    2.3569   -1.6806 H   0  0  0  0  0  0  0  0  0  0  0  0
   -0.4531    3.3318   -2.3945 H   0  0  0  0  0  0  0  0  0  0  0  0
    0.5315    2.2200   -1.4577 H   0  0  0  0  0  0  0  0  0  0  0  0
   -0.4974    3.4081   -0.6301 H   0  0  0  0  0  0  0  0  0  0  0  0
   -1.5777    1.1926   -3.5736 H   0  0  0  0  0  0  0  0  0  0  0  0
   -0.5242    0.2021   -2.5834 H   0  0  0  0  0  0  0  0  0  0  0  0
   -2.2841   -0.0481   -2.5415 H   0  0  0  0  0  0  0  0  0  0  0  0
    4.0953    0.2052   -1.2473 O   0  0  0  0  0  0  0  0  0  0  0  0
    4.7151    0.6262   -0.6002 H   0  0  0  0  0  0  0  0  0  0  0  0
  1  2  1  0
  2  3  1  0
  4  3  1  1
  4  5  1  0
  4  6  2  0
  7  8  1  0
  8  9  1  0
  9 10  1  0
 10 11  1  0
 11 12  1  0
 11 13  1  0
 10 14  1  0
 14 15  1  0
 14 16  1  0
  1 17  1  0
  1 18  1  0
  1 19  1  0
  2 20  1  0
  2 21  1  0
  5 22  1  0
  5 23  1  0
  5 24  1  0
  8 25  1  0
  8 26  1  0
  9 27  1  0
  9 28  1  0
 10 29  1  0
 11 30  1  0
 12 31  1  0
 12 32  1  0
 12 33  1  0
 13 34  1  0
 13 35  1  0
 13 36  1  0
 14 37  1  0
 15 38  1  0
 15 39  1  0
 15 40  1  0
 16 41  1  0
 16 42  1  0
 16 43  1  0
 44 45  1  0
  4 44  1  0
  4  7  1  0
M  CHG  1  10   1
M  END
$$$$
