VX
     RDKit          3D

 43 42  0  0  0  0  0  0  0  0999 V2000
    3.8592   -1.9940   -1.1101 C   0  0  0  0  0  0  0  0  0  0  0  0
    3.4723   -0.5299   -1.0967 C   0  0  0  0  0  0  0  0  0  0  0  0
    3.0044   -0.1972    0.2014 O   0  0  0  0  0  0  0  0  0  0  0  0
    2.8337    1.3653    0.5716 P   0  0  1  0  0  0  0  0  0  0  0  0
    4.0395    2.1256    1.6399 C   0  0  0  0  0  0  0  0  0  0  0  0
    1.6873    2.1764    0.0349 O   0  0  0  0  0  0  0  0  0  0  0  0
    1.5368    0.7776    2.4537 S   0  0  0  0  0  0  0  0  0  0  0  0
   -0.0342    0.2405    1.7165 C   0  0  0  0  0  0  0  0  0  0  0  0
   -0.9054    1.4520    1.3710 C   0  0  0  0  0  0  0  0  0  0  0  0
   -2.2229    1.1290    0.6583 N   0  0  2  0  0  0  0  0  0  0  0  0
   -3.1261    0.1240    1.3804 C   0  0  1  0  0  0  0  0  0  0  0  0
   -4.5868    0.5573    1.2267 C   0  0  0  0  0  0  0  0  0  0  0  0
   -2.9271   -1.3092    0.9018 C   0  0  0  0  0  0  0  0  0  0  0  0
   -2.1960    1.0832   -0.8774 C   0  0  1  0  0  0  0  0  0  0  0  0
   -2.1282    2.5135   -1.4216 C   0  0  0  0  0  0  0  0  0  0  0  0
   -1.0674    0.2307   -1.4415 C   0  0  0  0  0  0  0  0  0  0  0  0
    3.0050   -2.6240   -0.8345 H   0  0  0  0  0  0  0  0  0  0  0  0
    4.6482   -2.1931   -0.3742 H   0  0  0  0  0  0  0  0  0  0  0  0
    4.2160   -2.2956   -2.0992 H   0  0  0  0  0  0  0  0  0  0  0  0
    2.6691   -0.3432   -1.8183 H   0  0  0  0  0  0  0  0  0  0  0  0
    4.3346    0.0917   -1.3595 H   0  0  0  0  0  0  0  0  0  0  0  0
    4.4484    1.3958    2.3440 H   0  0  0  0  0  0  0  0  0  0  0  0
    4.8670    2.5465    1.0630 H   0  0  0  0  0  0  0  0  0  0  0  0
    3.5816    2.9357    2.2142 H   0  0  0  0  0  0  0  0  0  0  0  0
   -0.5343   -0.3930    2.4547 H   0  0  0  0  0  0  0  0  0  0  0  0
    0.1921   -0.3744    0.8435 H   0  0  0  0  0  0  0  0  0  0  0  0
   -1.2012    1.9667    2.2948 H   0  0  0  0  0  0  0  0  0  0  0  0
   -0.3931    2.1865    0.7506 H   0  0  0  0  0  0  0  0  0  0  0  0
   -2.7269    2.0105    0.8266 H   0  0  0  0  0  0  0  0  0  0  0  0
   -2.8698    0.1968    2.4433 H   0  0  0  0  0  0  0  0  0  0  0  0
   -4.7372    1.5816    1.5831 H   0  0  0  0  0  0  0  0  0  0  0  0
   -4.9232    0.5066    0.1869 H   0  0  0  0  0  0  0  0  0  0  0  0
   -5.2403   -0.0953    1.8155 H   0  0  0  0  0  0  0  0  0  0  0  0
   -1.8907   -1.6429    0.9944 H   0  0  0  0  0  0  0  0  0  0  0  0
   -3.2406   -1.4441   -0.1380 H   0  0  0  0  0  0  0  0  0  0  0  0
   -3.5375   -1.9902    1.5061 H   0  0  0  0  0  0  0  0  0  0  0  0
   -3.1553    0.6598   -1.1915 H   0  0  0  0  0  0  0  0  0  0  0  0
   -2.2379    2.5125   -2.5127 H   0  0  0  0  0  0  0  0  0  0  0  0
   -1.1729    2.9956   -1.1888 H   0  0  0  0  0  0  0  0  0  0  0  0
   -2.9342    3.1336   -1.0127 H   0  0  0  0  0  0  0  0  0  0  0  0
   -0.0832    0.6518   -1.2201 H   0  0  0  0  0  0  0  0  0  0  0  0
   -1.1514    0.1828   -2.5339 H   0  0  0  0  0  0  0  0  0  0  0  0
   -1.0994   -0.7986   -1.0759 H   0  0  0  0  0  0  0  0  0  0  0  0
  1  2  1  0
  2  3  1  0
  4  3  1  6
  4  5  1  0
  4  6  2  0
  4  7  1  0
  7  8  1  0
  8  9  1  0
  9 10  1  0
 10 11  1  0
 11 12  1  0
 11 13  1  0
 10 14  1  0
 14 15  1  0
 14 16  1  0
  1 17  1  0
  1 18  1  0
  1 19  1  0
  2 20  1  0
  2 21  1  0
  5 22  1  0
  5 23  1  0
  5 24  1  0
  8 25  1  0
  8 26  1  0
  9 27  1  0
  9 28  1  0
 10 29  1  6
 11 30  1  6
 12 31  1  0
 12 32  1  0
 12 33  1  0
 13 34  1  0
 13 35  1  0
 13 36  1  0
 14 37  1  1
 15 38  1  0
 15 39  1  0
 15 40  1  0
 16 41  1  0
 16 42  1  0
 16 43  1  0
M  CHG  1  10   1
M  END
$$$$
