VX
     RDKit          3D

 43 42  0  0  0  0  0  0  0  0999 V2000
    3.7033   -2.0343   -1.1530 C   0  0  0  0  0  0  0  0  0  0  0  0
    3.5227   -0.5307   -1.0823 C   0  0  0  0  0  0  0  0  0  0  0  0
    3.0002   -0.1997    0.1977 O   0  0  0  0  0  0  0  0  0  0  0  0
    2.8361    1.3663    0.5735 P   0  0  1  0  0  0  0  0  0  0  0  0
    4.0390    2.1299    1.6409 C   0  0  0  0  0  0  0  0  0  0  0  0
    1.6896    2.1735    0.0356 O   0  0  0  0  0  0  0  0  0  0  0  0
    1.5392    0.7786    2.4556 S   0  0  0  0  0  0  0  0  0  0  0  0
   -0.0668    0.3653    1.7141 C   0  0  0  0  0  0  0  0  0  0  0  0
   -1.0351    1.5441    1.8574 C   0  0  0  0  0  0  0  0  0  0  0  0
   -2.4046    1.3056    1.1853 N   0  0  2  0  0  0  0  0  0  0  0  0
   -3.1675    0.1612    1.8857 C   0  0  1  0  0  0  0  0  0  0  0  0
   -4.6126    0.5717    2.1564 C   0  0  0  0  0  0  0  0  0  0  0  0
   -3.0541   -1.1779    1.1645 C   0  0  0  0  0  0  0  0  0  0  0  0
   -2.3858    1.3350   -0.3583 C   0  0  2  0  0  0  0  0  0  0  0  0
   -1.6409    2.5743   -0.8618 C   0  0  0  0  0  0  0  0  0  0  0  0
   -3.8123    1.4063   -0.9154 C   0  0  0  0  0  0  0  0  0  0  0  0
    2.7599   -2.5525   -0.9421 H   0  0  0  0  0  0  0  0  0  0  0  0
    4.0638   -2.3371   -2.1390 H   0  0  0  0  0  0  0  0  0  0  0  0
    4.4302   -2.3654   -0.4045 H   0  0  0  0  0  0  0  0  0  0  0  0
    2.8233   -0.1967   -1.8558 H   0  0  0  0  0  0  0  0  0  0  0  0
    4.4866   -0.0389   -1.2287 H   0  0  0  0  0  0  0  0  0  0  0  0
    4.8951    2.4952    1.0668 H   0  0  0  0  0  0  0  0  0  0  0  0
    3.5958    2.9838    2.1593 H   0  0  0  0  0  0  0  0  0  0  0  0
    4.4174    1.4406    2.3946 H   0  0  0  0  0  0  0  0  0  0  0  0
   -0.4431   -0.5099    2.2537 H   0  0  0  0  0  0  0  0  0  0  0  0
    0.0819    0.0833    0.6677 H   0  0  0  0  0  0  0  0  0  0  0  0
   -0.6347    2.4819    1.4606 H   0  0  0  0  0  0  0  0  0  0  0  0
   -1.2594    1.7348    2.9181 H   0  0  0  0  0  0  0  0  0  0  0  0
   -2.9178    2.1597    1.4391 H   0  0  0  0  0  0  0  0  0  0  0  0
   -2.7022    0.0491    2.8735 H   0  0  0  0  0  0  0  0  0  0  0  0
   -5.2121    0.6683    1.2498 H   0  0  0  0  0  0  0  0  0  0  0  0
   -4.6636    1.5247    2.6952 H   0  0  0  0  0  0  0  0  0  0  0  0
   -5.1063   -0.1807    2.7831 H   0  0  0  0  0  0  0  0  0  0  0  0
   -3.4090   -1.9839    1.8224 H   0  0  0  0  0  0  0  0  0  0  0  0
   -3.6614   -1.2254    0.2589 H   0  0  0  0  0  0  0  0  0  0  0  0
   -2.0254   -1.4177    0.8908 H   0  0  0  0  0  0  0  0  0  0  0  0
   -1.8774    0.4283   -0.6993 H   0  0  0  0  0  0  0  0  0  0  0  0
   -0.5718    2.5108   -0.6546 H   0  0  0  0  0  0  0  0  0  0  0  0
   -2.0339    3.4957   -0.4138 H   0  0  0  0  0  0  0  0  0  0  0  0
   -1.7289    2.6684   -1.9506 H   0  0  0  0  0  0  0  0  0  0  0  0
   -4.3565    0.4686   -0.7843 H   0  0  0  0  0  0  0  0  0  0  0  0
   -4.3895    2.2127   -0.4469 H   0  0  0  0  0  0  0  0  0  0  0  0
   -3.7959    1.5964   -1.9965 H   0  0  0  0  0  0  0  0  0  0  0  0
  1  2  1  0
  2  3  1  0
  4  3  1  6
  4  5  1  0
  4  6  2  0
  4  7  1  0
  7  8  1  0
  8  9  1  0
  9 10  1  0
 10 11  1  0
 11 12  1  0
 11 13  1  0
 10 14  1  0
 14 15  1  0
 14 16  1  0
  1 17  1  0
  1 18  1  0
  1 19  1  0
  2 20  1  0
  2 21  1  0
  5 22  1  0
  5 23  1  0
  5 24  1  0
  8 25  1  0
  8 26  1  0
  9 27  1  0
  9 28  1  0
 10 29  1  1
 11 30  1  6
 12 31  1  0
 12 32  1  0
 12 33  1  0
 13 34  1  0
 13 35  1  0
 13 36  1  0
 14 37  1  6
 15 38  1  0
 15 39  1  0
 15 40  1  0
 16 41  1  0
 16 42  1  0
 16 43  1  0
M  CHG  1  10   1
M  END
$$$$
