VX
     RDKit          3D

 43 42  0  0  0  0  0  0  0  0999 V2000
    3.3937   -1.9911   -1.3230 C   0  0  0  0  0  0  0  0  0  0  0  0
    3.6600   -0.5322   -1.0149 C   0  0  0  0  0  0  0  0  0  0  0  0
    2.9937   -0.1978    0.1938 O   0  0  0  0  0  0  0  0  0  0  0  0
    2.8405    1.3650    0.5762 P   0  0  1  0  0  0  0  0  0  0  0  0
    4.0399    2.1346    1.6430 C   0  0  0  0  0  0  0  0  0  0  0  0
    1.6908    2.1684    0.0348 O   0  0  0  0  0  0  0  0  0  0  0  0
    1.5436    0.7773    2.4583 S   0  0  0  0  0  0  0  0  0  0  0  0
    0.1354   -0.1278    1.7486 C   0  0  0  0  0  0  0  0  0  0  0  0
   -0.6061    0.6986    0.6943 C   0  0  0  0  0  0  0  0  0  0  0  0
   -2.0621    0.2636    0.4513 N   0  0  1  0  0  0  0  0  0  0  0  0
   -2.2573   -1.0506   -0.3274 C   0  0  2  0  0  0  0  0  0  0  0  0
   -2.0691   -2.2927    0.5357 C   0  0  0  0  0  0  0  0  0  0  0  0
   -1.3796   -1.0933   -1.5773 C   0  0  0  0  0  0  0  0  0  0  0  0
   -3.0045    0.4576    1.6637 C   0  0  2  0  0  0  0  0  0  0  0  0
   -4.4625    0.2651    1.2370 C   0  0  0  0  0  0  0  0  0  0  0  0
   -2.8474    1.8620    2.2526 C   0  0  0  0  0  0  0  0  0  0  0  0
    2.3187   -2.1726   -1.4273 H   0  0  0  0  0  0  0  0  0  0  0  0
    3.8943   -2.2925   -2.2473 H   0  0  0  0  0  0  0  0  0  0  0  0
    3.7465   -2.6287   -0.5058 H   0  0  0  0  0  0  0  0  0  0  0  0
    3.2913    0.0964   -1.8313 H   0  0  0  0  0  0  0  0  0  0  0  0
    4.7337   -0.3634   -0.8918 H   0  0  0  0  0  0  0  0  0  0  0  0
    3.5755    2.9354    2.2254 H   0  0  0  0  0  0  0  0  0  0  0  0
    4.4643    1.4061    2.3395 H   0  0  0  0  0  0  0  0  0  0  0  0
    4.8572    2.5714    1.0628 H   0  0  0  0  0  0  0  0  0  0  0  0
    0.5328   -1.0422    1.3018 H   0  0  0  0  0  0  0  0  0  0  0  0
   -0.5137   -0.4091    2.5807 H   0  0  0  0  0  0  0  0  0  0  0  0
   -0.1007    0.6487   -0.2724 H   0  0  0  0  0  0  0  0  0  0  0  0
   -0.6526    1.7597    0.9574 H   0  0  0  0  0  0  0  0  0  0  0  0
   -2.3857    0.9770   -0.2177 H   0  0  0  0  0  0  0  0  0  0  0  0
   -3.2927   -1.0223   -0.6825 H   0  0  0  0  0  0  0  0  0  0  0  0
   -1.0350   -2.4309    0.8547 H   0  0  0  0  0  0  0  0  0  0  0  0
   -2.3417   -3.1856   -0.0389 H   0  0  0  0  0  0  0  0  0  0  0  0
   -2.7061   -2.2841    1.4238 H   0  0  0  0  0  0  0  0  0  0  0  0
   -0.3248   -1.2595   -1.3354 H   0  0  0  0  0  0  0  0  0  0  0  0
   -1.4674   -0.1691   -2.1578 H   0  0  0  0  0  0  0  0  0  0  0  0
   -1.6913   -1.9197   -2.2261 H   0  0  0  0  0  0  0  0  0  0  0  0
   -2.7320   -0.2885    2.4155 H   0  0  0  0  0  0  0  0  0  0  0  0
   -4.7167    0.8972    0.3793 H   0  0  0  0  0  0  0  0  0  0  0  0
   -4.6773   -0.7756    0.9774 H   0  0  0  0  0  0  0  0  0  0  0  0
   -5.1422    0.5239    2.0565 H   0  0  0  0  0  0  0  0  0  0  0  0
   -3.6066    2.0459    3.0212 H   0  0  0  0  0  0  0  0  0  0  0  0
   -2.9550    2.6353    1.4846 H   0  0  0  0  0  0  0  0  0  0  0  0
   -1.8780    1.9886    2.7440 H   0  0  0  0  0  0  0  0  0  0  0  0
  1  2  1  0
  2  3  1  0
  4  3  1  6
  4  5  1  0
  4  6  2  0
  4  7  1  0
  7  8  1  0
  8  9  1  0
  9 10  1  0
 10 11  1  0
 11 12  1  0
 11 13  1  0
 10 14  1  0
 14 15  1  0
 14 16  1  0
  1 17  1  0
  1 18  1  0
  1 19  1  0
  2 20  1  0
  2 21  1  0
  5 22  1  0
  5 23  1  0
  5 24  1  0
  8 25  1  0
  8 26  1  0
  9 27  1  0
  9 28  1  0
 10 29  1  1
 11 30  1  6
 12 31  1  0
 12 32  1  0
 12 33  1  0
 13 34  1  0
 13 35  1  0
 13 36  1  0
 14 37  1  1
 15 38  1  0
 15 39  1  0
 15 40  1  0
 16 41  1  0
 16 42  1  0
 16 43  1  0
M  CHG  1  10   1
M  END
$$$$
