VX
     RDKit          3D

 43 42  0  0  0  0  0  0  0  0999 V2000
    3.3910   -2.0091   -1.2988 C   0  0  0  0  0  0  0  0  0  0  0  0
    3.5899   -0.5278   -1.0508 C   0  0  0  0  0  0  0  0  0  0  0  0
    3.0054   -0.1990    0.2014 O   0  0  0  0  0  0  0  0  0  0  0  0
    2.8320    1.3665    0.5708 P   0  0  1  0  0  0  0  0  0  0  0  0
    4.0390    2.1257    1.6396 C   0  0  0  0  0  0  0  0  0  0  0  0
    1.6886    2.1769    0.0360 O   0  0  0  0  0  0  0  0  0  0  0  0
    1.5351    0.7788    2.4529 S   0  0  0  0  0  0  0  0  0  0  0  0
   -0.1273    0.6351    1.7132 C   0  0  0  0  0  0  0  0  0  0  0  0
   -1.0989   -0.0287    2.6878 C   0  0  0  0  0  0  0  0  0  0  0  0
   -0.5563   -1.3632    3.2251 N   0  0  1  0  0  0  0  0  0  0  0  0
   -1.0366   -1.6279    4.6597 C   0  0  2  0  0  0  0  0  0  0  0  0
   -0.0783   -2.5837    5.3689 C   0  0  0  0  0  0  0  0  0  0  0  0
   -2.4802   -2.1119    4.6864 C   0  0  0  0  0  0  0  0  0  0  0  0
   -0.5995   -2.5811    2.2851 C   0  0  2  0  0  0  0  0  0  0  0  0
    0.7420   -2.7379    1.5719 C   0  0  0  0  0  0  0  0  0  0  0  0
   -1.7628   -2.5407    1.2997 C   0  0  0  0  0  0  0  0  0  0  0  0
    2.3241   -2.2557   -1.3186 H   0  0  0  0  0  0  0  0  0  0  0  0
    3.8414   -2.3088   -2.2493 H   0  0  0  0  0  0  0  0  0  0  0  0
    3.8395   -2.5984   -0.4920 H   0  0  0  0  0  0  0  0  0  0  0  0
    4.6577   -0.2913   -1.0216 H   0  0  0  0  0  0  0  0  0  0  0  0
    3.1172    0.0536   -1.8484 H   0  0  0  0  0  0  0  0  0  0  0  0
    4.8759    2.5238    1.0604 H   0  0  0  0  0  0  0  0  0  0  0  0
    4.4327    1.4007    2.3581 H   0  0  0  0  0  0  0  0  0  0  0  0
    3.5890    2.9524    2.1968 H   0  0  0  0  0  0  0  0  0  0  0  0
   -0.4858    1.6378    1.4600 H   0  0  0  0  0  0  0  0  0  0  0  0
   -0.0586    0.0665    0.7823 H   0  0  0  0  0  0  0  0  0  0  0  0
   -1.2374    0.6357    3.5489 H   0  0  0  0  0  0  0  0  0  0  0  0
   -2.0851   -0.1973    2.2482 H   0  0  0  0  0  0  0  0  0  0  0  0
    0.4472   -1.1476    3.3509 H   0  0  0  0  0  0  0  0  0  0  0  0
   -0.9709   -0.6664    5.1826 H   0  0  0  0  0  0  0  0  0  0  0  0
   -0.1013   -3.5942    4.9518 H   0  0  0  0  0  0  0  0  0  0  0  0
   -0.3445   -2.6642    6.4289 H   0  0  0  0  0  0  0  0  0  0  0  0
    0.9530   -2.2175    5.3148 H   0  0  0  0  0  0  0  0  0  0  0  0
   -2.5954   -3.1030    4.2363 H   0  0  0  0  0  0  0  0  0  0  0  0
   -3.1461   -1.4178    4.1649 H   0  0  0  0  0  0  0  0  0  0  0  0
   -2.8319   -2.1862    5.7215 H   0  0  0  0  0  0  0  0  0  0  0  0
   -0.7280   -3.4641    2.9161 H   0  0  0  0  0  0  0  0  0  0  0  0
    1.5718   -2.7526    2.2859 H   0  0  0  0  0  0  0  0  0  0  0  0
    0.7677   -3.6848    1.0213 H   0  0  0  0  0  0  0  0  0  0  0  0
    0.9238   -1.9411    0.8476 H   0  0  0  0  0  0  0  0  0  0  0  0
   -1.6455   -1.7490    0.5533 H   0  0  0  0  0  0  0  0  0  0  0  0
   -2.7213   -2.4019    1.8084 H   0  0  0  0  0  0  0  0  0  0  0  0
   -1.8211   -3.4881    0.7514 H   0  0  0  0  0  0  0  0  0  0  0  0
  1  2  1  0
  2  3  1  0
  4  3  1  6
  4  5  1  0
  4  6  2  0
  4  7  1  0
  7  8  1  0
  8  9  1  0
  9 10  1  0
 10 11  1  0
 11 12  1  0
 11 13  1  0
 10 14  1  0
 14 15  1  0
 14 16  1  0
  1 17  1  0
  1 18  1  0
  1 19  1  0
  2 20  1  0
  2 21  1  0
  5 22  1  0
  5 23  1  0
  5 24  1  0
  8 25  1  0
  8 26  1  0
  9 27  1  0
  9 28  1  0
 10 29  1  6
 11 30  1  1
 12 31  1  0
 12 32  1  0
 12 33  1  0
 13 34  1  0
 13 35  1  0
 13 36  1  0
 14 37  1  1
 15 38  1  0
 15 39  1  0
 15 40  1  0
 16 41  1  0
 16 42  1  0
 16 43  1  0
M  CHG  1  10   1
M  END
$$$$
