VX
     RDKit          3D

 43 42  0  0  0  0  0  0  0  0999 V2000
    3.5819   -2.0344   -1.2047 C   0  0  0  0  0  0  0  0  0  0  0  0
    3.5506   -0.5261   -1.0678 C   0  0  0  0  0  0  0  0  0  0  0  0
    3.0057   -0.1986    0.2018 O   0  0  0  0  0  0  0  0  0  0  0  0
    2.8324    1.3659    0.5709 P   0  0  1  0  0  0  0  0  0  0  0  0
    4.0396    2.1252    1.6398 C   0  0  0  0  0  0  0  0  0  0  0  0
    1.6872    2.1776    0.0352 O   0  0  0  0  0  0  0  0  0  0  0  0
    1.5355    0.7782    2.4530 S   0  0  0  0  0  0  0  0  0  0  0  0
   -0.0674    0.4147    1.6932 C   0  0  0  0  0  0  0  0  0  0  0  0
   -1.0942    0.0292    2.7568 C   0  0  0  0  0  0  0  0  0  0  0  0
   -2.4775   -0.2037    2.1063 N   0  0  1  0  0  0  0  0  0  0  0  0
   -2.9910   -1.6446    2.2687 C   0  0  2  0  0  0  0  0  0  0  0  0
   -3.2607   -1.9910    3.7293 C   0  0  0  0  0  0  0  0  0  0  0  0
   -2.0268   -2.6261    1.6008 C   0  0  0  0  0  0  0  0  0  0  0  0
   -3.4882    0.9055    2.4833 C   0  0  1  0  0  0  0  0  0  0  0  0
   -2.9794    2.2574    1.9709 C   0  0  0  0  0  0  0  0  0  0  0  0
   -4.8611    0.6358    1.8653 C   0  0  0  0  0  0  0  0  0  0  0  0
    2.5735   -2.4514   -1.1093 H   0  0  0  0  0  0  0  0  0  0  0  0
    4.1879   -2.4814   -0.4094 H   0  0  0  0  0  0  0  0  0  0  0  0
    3.9963   -2.3297   -2.1727 H   0  0  0  0  0  0  0  0  0  0  0  0
    4.5640   -0.1220   -1.1486 H   0  0  0  0  0  0  0  0  0  0  0  0
    2.9283   -0.0909   -1.8559 H   0  0  0  0  0  0  0  0  0  0  0  0
    3.5816    2.9307    2.2210 H   0  0  0  0  0  0  0  0  0  0  0  0
    4.8625    2.5536    1.0614 H   0  0  0  0  0  0  0  0  0  0  0  0
    4.4550    1.3926    2.3376 H   0  0  0  0  0  0  0  0  0  0  0  0
    0.0634   -0.4002    0.9741 H   0  0  0  0  0  0  0  0  0  0  0  0
   -0.3979    1.2981    1.1401 H   0  0  0  0  0  0  0  0  0  0  0  0
   -0.7888   -0.8873    3.2676 H   0  0  0  0  0  0  0  0  0  0  0  0
   -1.2119    0.8003    3.5255 H   0  0  0  0  0  0  0  0  0  0  0  0
   -2.3526   -0.0966    1.0901 H   0  0  0  0  0  0  0  0  0  0  0  0
   -3.9246   -1.7025    1.7016 H   0  0  0  0  0  0  0  0  0  0  0  0
   -3.6800   -3.0007    3.8028 H   0  0  0  0  0  0  0  0  0  0  0  0
   -3.9862   -1.3079    4.1806 H   0  0  0  0  0  0  0  0  0  0  0  0
   -2.3536   -1.9734    4.3400 H   0  0  0  0  0  0  0  0  0  0  0  0
   -1.8110   -2.3259    0.5700 H   0  0  0  0  0  0  0  0  0  0  0  0
   -2.4744   -3.6256    1.5660 H   0  0  0  0  0  0  0  0  0  0  0  0
   -1.0779   -2.7182    2.1369 H   0  0  0  0  0  0  0  0  0  0  0  0
   -3.5601    0.9171    3.5762 H   0  0  0  0  0  0  0  0  0  0  0  0
   -3.7144    3.0449    2.1717 H   0  0  0  0  0  0  0  0  0  0  0  0
   -2.0524    2.5645    2.4627 H   0  0  0  0  0  0  0  0  0  0  0  0
   -2.8025    2.2340    0.8901 H   0  0  0  0  0  0  0  0  0  0  0  0
   -5.3578   -0.2172    2.3369 H   0  0  0  0  0  0  0  0  0  0  0  0
   -5.5253    1.4952    2.0109 H   0  0  0  0  0  0  0  0  0  0  0  0
   -4.7885    0.4482    0.7886 H   0  0  0  0  0  0  0  0  0  0  0  0
  1  2  1  0
  2  3  1  0
  4  3  1  6
  4  5  1  0
  4  6  2  0
  4  7  1  0
  7  8  1  0
  8  9  1  0
  9 10  1  0
 10 11  1  0
 11 12  1  0
 11 13  1  0
 10 14  1  0
 14 15  1  0
 14 16  1  0
  1 17  1  0
  1 18  1  0
  1 19  1  0
  2 20  1  0
  2 21  1  0
  5 22  1  0
  5 23  1  0
  5 24  1  0
  8 25  1  0
  8 26  1  0
  9 27  1  0
  9 28  1  0
 10 29  1  1
 11 30  1  6
 12 31  1  0
 12 32  1  0
 12 33  1  0
 13 34  1  0
 13 35  1  0
 13 36  1  0
 14 37  1  6
 15 38  1  0
 15 39  1  0
 15 40  1  0
 16 41  1  0
 16 42  1  0
 16 43  1  0
M  CHG  1  10   1
M  END
$$$$
