VX
     RDKit          3D

 43 42  0  0  0  0  0  0  0  0999 V2000
    3.7193   -2.0255   -1.1517 C   0  0  0  0  0  0  0  0  0  0  0  0
    3.5096   -0.5268   -1.0840 C   0  0  0  0  0  0  0  0  0  0  0  0
    3.0069   -0.1983    0.2027 O   0  0  0  0  0  0  0  0  0  0  0  0
    2.8316    1.3659    0.5703 P   0  0  1  0  0  0  0  0  0  0  0  0
    4.0397    2.1242    1.6396 C   0  0  0  0  0  0  0  0  0  0  0  0
    1.6868    2.1783    0.0352 O   0  0  0  0  0  0  0  0  0  0  0  0
    1.5347    0.7782    2.4524 S   0  0  0  0  0  0  0  0  0  0  0  0
   -0.0899    0.4923    1.7011 C   0  0  0  0  0  0  0  0  0  0  0  0
   -1.1017    0.0480    2.7573 C   0  0  0  0  0  0  0  0  0  0  0  0
   -2.5551    0.0529    2.2275 N   0  0  2  0  0  0  0  0  0  0  0  0
   -3.5375   -0.0802    3.4074 C   0  0  2  0  0  0  0  0  0  0  0  0
   -3.8272   -1.5186    3.7996 C   0  0  0  0  0  0  0  0  0  0  0  0
   -4.8043    0.7398    3.1733 C   0  0  0  0  0  0  0  0  0  0  0  0
   -2.7504   -0.7516    0.9328 C   0  0  1  0  0  0  0  0  0  0  0  0
   -2.3337   -2.2153    1.0422 C   0  0  0  0  0  0  0  0  0  0  0  0
   -4.1536   -0.5992    0.3613 C   0  0  0  0  0  0  0  0  0  0  0  0
    4.0972   -2.3237   -2.1335 H   0  0  0  0  0  0  0  0  0  0  0  0
    2.7817   -2.5563   -0.9569 H   0  0  0  0  0  0  0  0  0  0  0  0
    4.4329   -2.3473   -0.3856 H   0  0  0  0  0  0  0  0  0  0  0  0
    4.4563   -0.0076   -1.2581 H   0  0  0  0  0  0  0  0  0  0  0  0
    2.7862   -0.2137   -1.8433 H   0  0  0  0  0  0  0  0  0  0  0  0
    4.4553    1.3902    2.3360 H   0  0  0  0  0  0  0  0  0  0  0  0
    4.8624    2.5541    1.0620 H   0  0  0  0  0  0  0  0  0  0  0  0
    3.5813    2.9288    2.2223 H   0  0  0  0  0  0  0  0  0  0  0  0
   -0.4204    1.4214    1.2264 H   0  0  0  0  0  0  0  0  0  0  0  0
    0.0319   -0.2682    0.9248 H   0  0  0  0  0  0  0  0  0  0  0  0
   -1.0876    0.7581    3.5930 H   0  0  0  0  0  0  0  0  0  0  0  0
   -0.8943   -0.9550    3.1427 H   0  0  0  0  0  0  0  0  0  0  0  0
   -2.6836    1.0273    1.9212 H   0  0  0  0  0  0  0  0  0  0  0  0
   -3.0340    0.3974    4.2569 H   0  0  0  0  0  0  0  0  0  0  0  0
   -2.9078   -2.0979    3.9263 H   0  0  0  0  0  0  0  0  0  0  0  0
   -4.4726   -2.0217    3.0752 H   0  0  0  0  0  0  0  0  0  0  0  0
   -4.3574   -1.5425    4.7587 H   0  0  0  0  0  0  0  0  0  0  0  0
   -4.5718    1.7415    2.7973 H   0  0  0  0  0  0  0  0  0  0  0  0
   -5.5008    0.2604    2.4828 H   0  0  0  0  0  0  0  0  0  0  0  0
   -5.3436    0.8647    4.1197 H   0  0  0  0  0  0  0  0  0  0  0  0
   -2.0835   -0.2688    0.2096 H   0  0  0  0  0  0  0  0  0  0  0  0
   -3.0308   -2.8137    1.6309 H   0  0  0  0  0  0  0  0  0  0  0  0
   -1.3326   -2.3378    1.4622 H   0  0  0  0  0  0  0  0  0  0  0  0
   -2.3106   -2.6640    0.0418 H   0  0  0  0  0  0  0  0  0  0  0  0
   -4.1836   -0.9886   -0.6631 H   0  0  0  0  0  0  0  0  0  0  0  0
   -4.4547    0.4520    0.3148 H   0  0  0  0  0  0  0  0  0  0  0  0
   -4.8958   -1.1634    0.9316 H   0  0  0  0  0  0  0  0  0  0  0  0
  1  2  1  0
  2  3  1  0
  4  3  1  6
  4  5  1  0
  4  6  2  0
  4  7  1  0
  7  8  1  0
  8  9  1  0
  9 10  1  0
 10 11  1  0
 11 12  1  0
 11 13  1  0
 10 14  1  0
 14 15  1  0
 14 16  1  0
  1 17  1  0
  1 18  1  0
  1 19  1  0
  2 20  1  0
  2 21  1  0
  5 22  1  0
  5 23  1  0
  5 24  1  0
  8 25  1  0
  8 26  1  0
  9 27  1  0
  9 28  1  0
 10 29  1  6
 11 30  1  1
 12 31  1  0
 12 32  1  0
 12 33  1  0
 13 34  1  0
 13 35  1  0
 13 36  1  0
 14 37  1  1
 15 38  1  0
 15 39  1  0
 15 40  1  0
 16 41  1  0
 16 42  1  0
 16 43  1  0
M  CHG  1  10   1
M  END
$$$$
