VX
     RDKit          3D

 43 42  0  0  0  0  0  0  0  0999 V2000
    2.4341   -0.9017   -2.0230 C   0  0  0  0  0  0  0  0  0  0  0  0
    3.5508   -0.5446   -1.0642 C   0  0  0  0  0  0  0  0  0  0  0  0
    2.9992   -0.1963    0.1980 O   0  0  0  0  0  0  0  0  0  0  0  0
    2.8362    1.3655    0.5734 P   0  0  1  0  0  0  0  0  0  0  0  0
    4.0387    2.1294    1.6405 C   0  0  0  0  0  0  0  0  0  0  0  0
    1.6908    2.1715    0.0358 O   0  0  0  0  0  0  0  0  0  0  0  0
    1.5393    0.7778    2.4555 S   0  0  0  0  0  0  0  0  0  0  0  0
    0.4526   -0.5381    1.8328 C   0  0  0  0  0  0  0  0  0  0  0  0
   -0.6158   -0.0346    0.8513 C   0  0  0  0  0  0  0  0  0  0  0  0
   -1.4949    1.0799    1.4267 N   0  0  1  0  0  0  0  0  0  0  0  0
   -2.2147    1.9355    0.3627 C   0  0  1  0  0  0  0  0  0  0  0  0
   -1.2239    2.7625   -0.4477 C   0  0  0  0  0  0  0  0  0  0  0  0
   -3.1094    1.0863   -0.5346 C   0  0  0  0  0  0  0  0  0  0  0  0
   -2.4524    0.7139    2.5819 C   0  0  2  0  0  0  0  0  0  0  0  0
   -1.8147    1.0621    3.9246 C   0  0  0  0  0  0  0  0  0  0  0  0
   -2.9413   -0.7309    2.5403 C   0  0  0  0  0  0  0  0  0  0  0  0
    2.8421   -1.2256   -2.9871 H   0  0  0  0  0  0  0  0  0  0  0  0
    1.7752   -0.0440   -2.1914 H   0  0  0  0  0  0  0  0  0  0  0  0
    1.8113   -1.7046   -1.6150 H   0  0  0  0  0  0  0  0  0  0  0  0
    4.1589    0.2714   -1.4661 H   0  0  0  0  0  0  0  0  0  0  0  0
    4.2039   -1.4102   -0.9134 H   0  0  0  0  0  0  0  0  0  0  0  0
    4.4708    1.3933    2.3231 H   0  0  0  0  0  0  0  0  0  0  0  0
    3.5754    2.9193    2.2391 H   0  0  0  0  0  0  0  0  0  0  0  0
    4.8502    2.5774    1.0616 H   0  0  0  0  0  0  0  0  0  0  0  0
   -0.0045   -1.0310    2.6940 H   0  0  0  0  0  0  0  0  0  0  0  0
    1.0694   -1.2942    1.3380 H   0  0  0  0  0  0  0  0  0  0  0  0
   -1.2699   -0.8504    0.5332 H   0  0  0  0  0  0  0  0  0  0  0  0
   -0.1256    0.3564   -0.0430 H   0  0  0  0  0  0  0  0  0  0  0  0
   -0.8063    1.7319    1.8356 H   0  0  0  0  0  0  0  0  0  0  0  0
   -2.8313    2.6475    0.9228 H   0  0  0  0  0  0  0  0  0  0  0  0
   -0.6224    2.1498   -1.1249 H   0  0  0  0  0  0  0  0  0  0  0  0
   -1.7618    3.4838   -1.0735 H   0  0  0  0  0  0  0  0  0  0  0  0
   -0.5584    3.3347    0.2050 H   0  0  0  0  0  0  0  0  0  0  0  0
   -3.6418    1.7222   -1.2515 H   0  0  0  0  0  0  0  0  0  0  0  0
   -3.8679    0.5553    0.0455 H   0  0  0  0  0  0  0  0  0  0  0  0
   -2.5378    0.3541   -1.1131 H   0  0  0  0  0  0  0  0  0  0  0  0
   -3.3290    1.3635    2.4742 H   0  0  0  0  0  0  0  0  0  0  0  0
   -2.5579    0.9763    4.7256 H   0  0  0  0  0  0  0  0  0  0  0  0
   -0.9914    0.3939    4.1803 H   0  0  0  0  0  0  0  0  0  0  0  0
   -1.4411    2.0910    3.9347 H   0  0  0  0  0  0  0  0  0  0  0  0
   -3.7256   -0.8789    3.2918 H   0  0  0  0  0  0  0  0  0  0  0  0
   -3.3741   -0.9925    1.5720 H   0  0  0  0  0  0  0  0  0  0  0  0
   -2.1488   -1.4489    2.7674 H   0  0  0  0  0  0  0  0  0  0  0  0
  1  2  1  0
  2  3  1  0
  4  3  1  6
  4  5  1  0
  4  6  2  0
  4  7  1  0
  7  8  1  0
  8  9  1  0
  9 10  1  0
 10 11  1  0
 11 12  1  0
 11 13  1  0
 10 14  1  0
 14 15  1  0
 14 16  1  0
  1 17  1  0
  1 18  1  0
  1 19  1  0
  2 20  1  0
  2 21  1  0
  5 22  1  0
  5 23  1  0
  5 24  1  0
  8 25  1  0
  8 26  1  0
  9 27  1  0
  9 28  1  0
 10 29  1  6
 11 30  1  6
 12 31  1  0
 12 32  1  0
 12 33  1  0
 13 34  1  0
 13 35  1  0
 13 36  1  0
 14 37  1  6
 15 38  1  0
 15 39  1  0
 15 40  1  0
 16 41  1  0
 16 42  1  0
 16 43  1  0
M  CHG  1  10   1
M  END
$$$$
