VX
     RDKit          3D

 43 42  0  0  0  0  0  0  0  0999 V2000
    3.6419   -2.0313   -1.1801 C   0  0  0  0  0  0  0  0  0  0  0  0
    3.5064   -0.5260   -1.0842 C   0  0  0  0  0  0  0  0  0  0  0  0
    3.0100   -0.1973    0.2052 O   0  0  0  0  0  0  0  0  0  0  0  0
    2.8294    1.3660    0.5689 P   0  0  1  0  0  0  0  0  0  0  0  0
    4.0390    2.1212    1.6382 C   0  0  0  0  0  0  0  0  0  0  0  0
    1.6865    2.1802    0.0355 O   0  0  0  0  0  0  0  0  0  0  0  0
    1.5325    0.7783    2.4510 S   0  0  0  0  0  0  0  0  0  0  0  0
    0.1455   -0.1142    1.6707 C   0  0  0  0  0  0  0  0  0  0  0  0
   -0.9963   -0.3176    2.6680 C   0  0  0  0  0  0  0  0  0  0  0  0
   -1.4600    0.9935    3.3234 N   0  0  1  0  0  0  0  0  0  0  0  0
   -2.2340    1.9743    2.4042 C   0  0  2  0  0  0  0  0  0  0  0  0
   -3.1334    1.2586    1.4030 C   0  0  0  0  0  0  0  0  0  0  0  0
   -1.2864    2.9697    1.7461 C   0  0  0  0  0  0  0  0  0  0  0  0
   -2.1964    0.8403    4.6762 C   0  0  2  0  0  0  0  0  0  0  0  0
   -1.9325    2.0965    5.5172 C   0  0  0  0  0  0  0  0  0  0  0  0
   -1.7525   -0.3818    5.4780 C   0  0  0  0  0  0  0  0  0  0  0  0
    4.0198   -2.3276   -2.1626 H   0  0  0  0  0  0  0  0  0  0  0  0
    4.3249   -2.4066   -0.4109 H   0  0  0  0  0  0  0  0  0  0  0  0
    2.6751   -2.5172   -1.0118 H   0  0  0  0  0  0  0  0  0  0  0  0
    4.4793   -0.0505   -1.2379 H   0  0  0  0  0  0  0  0  0  0  0  0
    2.8079   -0.1624   -1.8443 H   0  0  0  0  0  0  0  0  0  0  0  0
    3.5835    2.9281    2.2193 H   0  0  0  0  0  0  0  0  0  0  0  0
    4.4518    1.3869    2.3357 H   0  0  0  0  0  0  0  0  0  0  0  0
    4.8634    2.5460    1.0597 H   0  0  0  0  0  0  0  0  0  0  0  0
    0.5137   -1.0874    1.3303 H   0  0  0  0  0  0  0  0  0  0  0  0
   -0.1933    0.4258    0.7850 H   0  0  0  0  0  0  0  0  0  0  0  0
   -0.6066   -0.9679    3.4539 H   0  0  0  0  0  0  0  0  0  0  0  0
   -1.8640   -0.8151    2.2275 H   0  0  0  0  0  0  0  0  0  0  0  0
   -0.5659    1.4559    3.5572 H   0  0  0  0  0  0  0  0  0  0  0  0
   -2.8903    2.5576    3.0578 H   0  0  0  0  0  0  0  0  0  0  0  0
   -2.5628    0.7321    0.6323 H   0  0  0  0  0  0  0  0  0  0  0  0
   -3.7707    1.9852    0.8864 H   0  0  0  0  0  0  0  0  0  0  0  0
   -3.7943    0.5430    1.9027 H   0  0  0  0  0  0  0  0  0  0  0  0
   -1.8610    3.7809    1.2845 H   0  0  0  0  0  0  0  0  0  0  0  0
   -0.6900    2.5189    0.9523 H   0  0  0  0  0  0  0  0  0  0  0  0
   -0.6122    3.4251    2.4788 H   0  0  0  0  0  0  0  0  0  0  0  0
   -3.2635    0.7447    4.4447 H   0  0  0  0  0  0  0  0  0  0  0  0
   -2.2706    3.0126    5.0262 H   0  0  0  0  0  0  0  0  0  0  0  0
   -0.8642    2.2096    5.7339 H   0  0  0  0  0  0  0  0  0  0  0  0
   -2.4618    2.0334    6.4746 H   0  0  0  0  0  0  0  0  0  0  0  0
   -2.2299   -0.3845    6.4648 H   0  0  0  0  0  0  0  0  0  0  0  0
   -0.6690   -0.3923    5.6384 H   0  0  0  0  0  0  0  0  0  0  0  0
   -2.0544   -1.3141    4.9899 H   0  0  0  0  0  0  0  0  0  0  0  0
  1  2  1  0
  2  3  1  0
  4  3  1  6
  4  5  1  0
  4  6  2  0
  4  7  1  0
  7  8  1  0
  8  9  1  0
  9 10  1  0
 10 11  1  0
 11 12  1  0
 11 13  1  0
 10 14  1  0
 14 15  1  0
 14 16  1  0
  1 17  1  0
  1 18  1  0
  1 19  1  0
  2 20  1  0
  2 21  1  0
  5 22  1  0
  5 23  1  0
  5 24  1  0
  8 25  1  0
  8 26  1  0
  9 27  1  0
  9 28  1  0
 10 29  1  6
 11 30  1  1
 12 31  1  0
 12 32  1  0
 12 33  1  0
 13 34  1  0
 13 35  1  0
 13 36  1  0
 14 37  1  6
 15 38  1  0
 15 39  1  0
 15 40  1  0
 16 41  1  0
 16 42  1  0
 16 43  1  0
M  CHG  1  10   1
M  END
$$$$
