VX
     RDKit          3D

 43 42  0  0  0  0  0  0  0  0999 V2000
    3.5727   -2.0348   -1.2050 C   0  0  0  0  0  0  0  0  0  0  0  0
    3.5554   -0.5274   -1.0656 C   0  0  0  0  0  0  0  0  0  0  0  0
    3.0041   -0.1971    0.2012 O   0  0  0  0  0  0  0  0  0  0  0  0
    2.8336    1.3654    0.5716 P   0  0  1  0  0  0  0  0  0  0  0  0
    4.0395    2.1259    1.6400 C   0  0  0  0  0  0  0  0  0  0  0  0
    1.6877    2.1759    0.0351 O   0  0  0  0  0  0  0  0  0  0  0  0
    1.5367    0.7777    2.4537 S   0  0  0  0  0  0  0  0  0  0  0  0
    0.1847    1.9997    2.4298 C   0  0  0  0  0  0  0  0  0  0  0  0
   -0.9278    1.6246    1.4345 C   0  0  0  0  0  0  0  0  0  0  0  0
   -1.3256    0.1383    1.5225 N   0  0  2  0  0  0  0  0  0  0  0  0
   -1.5972   -0.4847    0.1331 C   0  0  2  0  0  0  0  0  0  0  0  0
   -0.2855   -0.7020   -0.6166 C   0  0  0  0  0  0  0  0  0  0  0  0
   -2.6023    0.3349   -0.6739 C   0  0  0  0  0  0  0  0  0  0  0  0
   -2.4331   -0.2166    2.5381 C   0  0  2  0  0  0  0  0  0  0  0  0
   -2.3423    0.5952    3.8279 C   0  0  0  0  0  0  0  0  0  0  0  0
   -2.3334   -1.7031    2.9028 C   0  0  0  0  0  0  0  0  0  0  0  0
    4.1651   -2.4890   -0.4044 H   0  0  0  0  0  0  0  0  0  0  0  0
    3.9930   -2.3333   -2.1694 H   0  0  0  0  0  0  0  0  0  0  0  0
    2.5591   -2.4406   -1.1199 H   0  0  0  0  0  0  0  0  0  0  0  0
    2.9410   -0.0849   -1.8560 H   0  0  0  0  0  0  0  0  0  0  0  0
    4.5719   -0.1314   -1.1389 H   0  0  0  0  0  0  0  0  0  0  0  0
    3.5794    2.9228    2.2309 H   0  0  0  0  0  0  0  0  0  0  0  0
    4.4646    1.3895    2.3276 H   0  0  0  0  0  0  0  0  0  0  0  0
    4.8556    2.5653    1.0603 H   0  0  0  0  0  0  0  0  0  0  0  0
   -0.2026    2.0823    3.4465 H   0  0  0  0  0  0  0  0  0  0  0  0
    0.5912    2.9852    2.1794 H   0  0  0  0  0  0  0  0  0  0  0  0
   -1.8328    2.2245    1.5729 H   0  0  0  0  0  0  0  0  0  0  0  0
   -0.5687    1.8134    0.4216 H   0  0  0  0  0  0  0  0  0  0  0  0
   -0.4700   -0.3248    1.8716 H   0  0  0  0  0  0  0  0  0  0  0  0
   -2.0258   -1.4733    0.3095 H   0  0  0  0  0  0  0  0  0  0  0  0
    0.1848    0.2367   -0.9174 H   0  0  0  0  0  0  0  0  0  0  0  0
   -0.4663   -1.2775   -1.5309 H   0  0  0  0  0  0  0  0  0  0  0  0
    0.4260   -1.2709   -0.0093 H   0  0  0  0  0  0  0  0  0  0  0  0
   -2.2017    1.3049   -0.9826 H   0  0  0  0  0  0  0  0  0  0  0  0
   -3.5264    0.5111   -0.1158 H   0  0  0  0  0  0  0  0  0  0  0  0
   -2.8733   -0.2042   -1.5891 H   0  0  0  0  0  0  0  0  0  0  0  0
   -3.3916   -0.0040    2.0542 H   0  0  0  0  0  0  0  0  0  0  0  0
   -1.3929    0.4286    4.3458 H   0  0  0  0  0  0  0  0  0  0  0  0
   -3.1399    0.2960    4.5181 H   0  0  0  0  0  0  0  0  0  0  0  0
   -2.4786    1.6659    3.6535 H   0  0  0  0  0  0  0  0  0  0  0  0
   -2.5693   -2.3603    2.0627 H   0  0  0  0  0  0  0  0  0  0  0  0
   -3.0465   -1.9528    3.6969 H   0  0  0  0  0  0  0  0  0  0  0  0
   -1.3308   -1.9593    3.2635 H   0  0  0  0  0  0  0  0  0  0  0  0
  1  2  1  0
  2  3  1  0
  4  3  1  6
  4  5  1  0
  4  6  2  0
  4  7  1  0
  7  8  1  0
  8  9  1  0
  9 10  1  0
 10 11  1  0
 11 12  1  0
 11 13  1  0
 10 14  1  0
 14 15  1  0
 14 16  1  0
  1 17  1  0
  1 18  1  0
  1 19  1  0
  2 20  1  0
  2 21  1  0
  5 22  1  0
  5 23  1  0
  5 24  1  0
  8 25  1  0
  8 26  1  0
  9 27  1  0
  9 28  1  0
 10 29  1  1
 11 30  1  1
 12 31  1  0
 12 32  1  0
 12 33  1  0
 13 34  1  0
 13 35  1  0
 13 36  1  0
 14 37  1  6
 15 38  1  0
 15 39  1  0
 15 40  1  0
 16 41  1  0
 16 42  1  0
 16 43  1  0
M  CHG  1  10   1
M  END
$$$$
