VX
     RDKit          3D

 43 42  0  0  0  0  0  0  0  0999 V2000
    2.4226   -1.0977   -1.9340 C   0  0  0  0  0  0  0  0  0  0  0  0
    3.5353   -0.5391   -1.0711 C   0  0  0  0  0  0  0  0  0  0  0  0
    3.0062   -0.1983    0.2023 O   0  0  0  0  0  0  0  0  0  0  0  0
    2.8320    1.3659    0.5706 P   0  0  1  0  0  0  0  0  0  0  0  0
    4.0396    2.1247    1.6397 C   0  0  0  0  0  0  0  0  0  0  0  0
    1.6871    2.1778    0.0352 O   0  0  0  0  0  0  0  0  0  0  0  0
    1.5351    0.7782    2.4527 S   0  0  0  0  0  0  0  0  0  0  0  0
   -0.0617    0.3903    1.6866 C   0  0  0  0  0  0  0  0  0  0  0  0
   -1.0973    0.0329    2.7542 C   0  0  0  0  0  0  0  0  0  0  0  0
   -2.5149   -0.0571    2.1683 N   0  0  2  0  0  0  0  0  0  0  0  0
   -3.6372    0.1584    3.2031 C   0  0  2  0  0  0  0  0  0  0  0  0
   -3.8741    1.6610    3.3608 C   0  0  0  0  0  0  0  0  0  0  0  0
   -3.3415   -0.4991    4.5499 C   0  0  0  0  0  0  0  0  0  0  0  0
   -2.7199   -1.2335    1.2019 C   0  0  1  0  0  0  0  0  0  0  0  0
   -2.9332   -2.5562    1.9241 C   0  0  0  0  0  0  0  0  0  0  0  0
   -3.8602   -0.9141    0.2349 C   0  0  0  0  0  0  0  0  0  0  0  0
    2.8018   -1.3939   -2.9159 H   0  0  0  0  0  0  0  0  0  0  0  0
    1.9633   -1.9687   -1.4549 H   0  0  0  0  0  0  0  0  0  0  0  0
    1.6294   -0.3557   -2.0712 H   0  0  0  0  0  0  0  0  0  0  0  0
    4.3128   -1.2940   -0.9215 H   0  0  0  0  0  0  0  0  0  0  0  0
    3.9958    0.3293   -1.5527 H   0  0  0  0  0  0  0  0  0  0  0  0
    3.5882    2.9463    2.2030 H   0  0  0  0  0  0  0  0  0  0  0  0
    4.8754    2.5287    1.0621 H   0  0  0  0  0  0  0  0  0  0  0  0
    4.4369    1.3971    2.3531 H   0  0  0  0  0  0  0  0  0  0  0  0
    0.0968   -0.4359    0.9891 H   0  0  0  0  0  0  0  0  0  0  0  0
   -0.3943    1.2622    1.1149 H   0  0  0  0  0  0  0  0  0  0  0  0
   -0.8769   -0.9227    3.2399 H   0  0  0  0  0  0  0  0  0  0  0  0
   -1.1269    0.8267    3.5073 H   0  0  0  0  0  0  0  0  0  0  0  0
   -2.5787    0.7691    1.5578 H   0  0  0  0  0  0  0  0  0  0  0  0
   -4.5471   -0.2813    2.7853 H   0  0  0  0  0  0  0  0  0  0  0  0
   -4.7044    1.8463    4.0508 H   0  0  0  0  0  0  0  0  0  0  0  0
   -2.9924    2.1760    3.7548 H   0  0  0  0  0  0  0  0  0  0  0  0
   -4.1350    2.1201    2.4010 H   0  0  0  0  0  0  0  0  0  0  0  0
   -2.5266   -0.0016    5.0852 H   0  0  0  0  0  0  0  0  0  0  0  0
   -3.0871   -1.5566    4.4517 H   0  0  0  0  0  0  0  0  0  0  0  0
   -4.2262   -0.4373    5.1938 H   0  0  0  0  0  0  0  0  0  0  0  0
   -1.8066   -1.3038    0.6050 H   0  0  0  0  0  0  0  0  0  0  0  0
   -2.1161   -2.7756    2.6173 H   0  0  0  0  0  0  0  0  0  0  0  0
   -2.9694   -3.3768    1.1985 H   0  0  0  0  0  0  0  0  0  0  0  0
   -3.8778   -2.5776    2.4759 H   0  0  0  0  0  0  0  0  0  0  0  0
   -3.7007    0.0502   -0.2592 H   0  0  0  0  0  0  0  0  0  0  0  0
   -3.9152   -1.6794   -0.5474 H   0  0  0  0  0  0  0  0  0  0  0  0
   -4.8350   -0.8875    0.7300 H   0  0  0  0  0  0  0  0  0  0  0  0
  1  2  1  0
  2  3  1  0
  4  3  1  6
  4  5  1  0
  4  6  2  0
  4  7  1  0
  7  8  1  0
  8  9  1  0
  9 10  1  0
 10 11  1  0
 11 12  1  0
 11 13  1  0
 10 14  1  0
 14 15  1  0
 14 16  1  0
  1 17  1  0
  1 18  1  0
  1 19  1  0
  2 20  1  0
  2 21  1  0
  5 22  1  0
  5 23  1  0
  5 24  1  0
  8 25  1  0
  8 26  1  0
  9 27  1  0
  9 28  1  0
 10 29  1  6
 11 30  1  6
 12 31  1  0
 12 32  1  0
 12 33  1  0
 13 34  1  0
 13 35  1  0
 13 36  1  0
 14 37  1  1
 15 38  1  0
 15 39  1  0
 15 40  1  0
 16 41  1  0
 16 42  1  0
 16 43  1  0
M  CHG  1  10   1
M  END
$$$$
