VX
     RDKit          3D

 43 42  0  0  0  0  0  0  0  0999 V2000
    4.6771    0.0403   -0.8769 C   0  0  0  0  0  0  0  0  0  0  0  0
    3.1675    0.1119   -0.9662 C   0  0  0  0  0  0  0  0  0  0  0  0
    2.5495   -0.4466    0.1829 O   0  0  0  0  0  0  0  0  0  0  0  0
    2.4589    0.4084    1.5486 P   0  0  1  0  0  0  0  0  0  0  0  0
    3.1310   -0.3313    3.0239 C   0  0  0  0  0  0  0  0  0  0  0  0
    1.8387    1.7773    1.6092 O   0  0  0  0  0  0  0  0  0  0  0  0
    0.3600   -0.5633    2.0176 S   0  0  0  0  0  0  0  0  0  0  0  0
   -0.6638    0.8605    2.5020 C   0  0  0  0  0  0  0  0  0  0  0  0
   -0.9694    1.8210    1.3387 C   0  0  0  0  0  0  0  0  0  0  0  0
   -2.3336    1.5546    0.6726 N   0  0  2  0  0  0  0  0  0  0  0  0
   -2.4334    0.2141   -0.0703 C   0  0  2  0  0  0  0  0  0  0  0  0
   -1.6816    0.2209   -1.3934 C   0  0  0  0  0  0  0  0  0  0  0  0
   -3.9007   -0.1851   -0.2418 C   0  0  0  0  0  0  0  0  0  0  0  0
   -2.8949    2.7732   -0.0893 C   0  0  2  0  0  0  0  0  0  0  0  0
   -1.8206    3.5604   -0.8378 C   0  0  0  0  0  0  0  0  0  0  0  0
   -3.6456    3.6641    0.9016 C   0  0  0  0  0  0  0  0  0  0  0  0
    5.0510    0.7075   -0.0954 H   0  0  0  0  0  0  0  0  0  0  0  0
    5.0065   -0.9736   -0.6269 H   0  0  0  0  0  0  0  0  0  0  0  0
    5.1346    0.3396   -1.8245 H   0  0  0  0  0  0  0  0  0  0  0  0
    2.8261   -0.4692   -1.8280 H   0  0  0  0  0  0  0  0  0  0  0  0
    2.8280    1.1419   -1.1173 H   0  0  0  0  0  0  0  0  0  0  0  0
    4.1838   -0.0735    3.1614 H   0  0  0  0  0  0  0  0  0  0  0  0
    2.5827    0.0152    3.9060 H   0  0  0  0  0  0  0  0  0  0  0  0
    3.0502   -1.4212    2.9796 H   0  0  0  0  0  0  0  0  0  0  0  0
   -1.5843    0.4914    2.9661 H   0  0  0  0  0  0  0  0  0  0  0  0
   -0.1070    1.3988    3.2771 H   0  0  0  0  0  0  0  0  0  0  0  0
   -0.2156    1.8250    0.5485 H   0  0  0  0  0  0  0  0  0  0  0  0
   -1.0430    2.8274    1.7625 H   0  0  0  0  0  0  0  0  0  0  0  0
   -2.9764    1.4301    1.4643 H   0  0  0  0  0  0  0  0  0  0  0  0
   -1.9934   -0.5330    0.5908 H   0  0  0  0  0  0  0  0  0  0  0  0
   -0.6331    0.5048   -1.2645 H   0  0  0  0  0  0  0  0  0  0  0  0
   -1.6921   -0.7823   -1.8336 H   0  0  0  0  0  0  0  0  0  0  0  0
   -2.1405    0.8940   -2.1243 H   0  0  0  0  0  0  0  0  0  0  0  0
   -3.9679   -1.2205   -0.5949 H   0  0  0  0  0  0  0  0  0  0  0  0
   -4.4418   -0.1263    0.7083 H   0  0  0  0  0  0  0  0  0  0  0  0
   -4.4244    0.4360   -0.9741 H   0  0  0  0  0  0  0  0  0  0  0  0
   -3.6217    2.3950   -0.8132 H   0  0  0  0  0  0  0  0  0  0  0  0
   -1.2222    2.9267   -1.4968 H   0  0  0  0  0  0  0  0  0  0  0  0
   -2.2927    4.3244   -1.4660 H   0  0  0  0  0  0  0  0  0  0  0  0
   -1.1409    4.0869   -0.1598 H   0  0  0  0  0  0  0  0  0  0  0  0
   -4.1123    4.5064    0.3797 H   0  0  0  0  0  0  0  0  0  0  0  0
   -2.9811    4.0752    1.6685 H   0  0  0  0  0  0  0  0  0  0  0  0
   -4.4433    3.1071    1.4057 H   0  0  0  0  0  0  0  0  0  0  0  0
  1  2  1  0
  2  3  1  0
  4  3  1  6
  4  5  1  0
  4  6  2  0
  4  7  1  0
  7  8  1  0
  8  9  1  0
  9 10  1  0
 10 11  1  0
 11 12  1  0
 11 13  1  0
 10 14  1  0
 14 15  1  0
 14 16  1  0
  1 17  1  0
  1 18  1  0
  1 19  1  0
  2 20  1  0
  2 21  1  0
  5 22  1  0
  5 23  1  0
  5 24  1  0
  8 25  1  0
  8 26  1  0
  9 27  1  0
  9 28  1  0
 10 29  1  6
 11 30  1  1
 12 31  1  0
 12 32  1  0
 12 33  1  0
 13 34  1  0
 13 35  1  0
 13 36  1  0
 14 37  1  1
 15 38  1  0
 15 39  1  0
 15 40  1  0
 16 41  1  0
 16 42  1  0
 16 43  1  0
M  CHG  1  10   1
M  END
$$$$
