VX
     RDKit          3D

 43 42  0  0  0  0  0  0  0  0999 V2000
    2.4904   -1.1027   -1.9599 C   0  0  0  0  0  0  0  0  0  0  0  0
    3.5702   -0.5407   -1.0582 C   0  0  0  0  0  0  0  0  0  0  0  0
    2.9933   -0.1979    0.1935 O   0  0  0  0  0  0  0  0  0  0  0  0
    2.8413    1.3646    0.5766 P   0  0  1  0  0  0  0  0  0  0  0  0
    4.0405    2.1350    1.6435 C   0  0  0  0  0  0  0  0  0  0  0  0
    1.6898    2.1685    0.0342 O   0  0  0  0  0  0  0  0  0  0  0  0
    1.5444    0.7769    2.4587 S   0  0  0  0  0  0  0  0  0  0  0  0
   -0.1537    1.1229    1.9059 C   0  0  0  0  0  0  0  0  0  0  0  0
   -0.5487    0.2050    0.7446 C   0  0  0  0  0  0  0  0  0  0  0  0
   -1.8761    0.5486    0.0634 N   0  0  1  0  0  0  0  0  0  0  0  0
   -3.1514   -0.0892    0.6219 C   0  0  1  0  0  0  0  0  0  0  0  0
   -3.2263   -1.5462    0.1586 C   0  0  0  0  0  0  0  0  0  0  0  0
   -3.2555    0.0060    2.1376 C   0  0  0  0  0  0  0  0  0  0  0  0
   -1.9744    1.9947   -0.4512 C   0  0  1  0  0  0  0  0  0  0  0  0
   -2.6479    1.9879   -1.8256 C   0  0  0  0  0  0  0  0  0  0  0  0
   -2.7080    2.9200    0.5130 C   0  0  0  0  0  0  0  0  0  0  0  0
    2.9060   -1.4023   -2.9260 H   0  0  0  0  0  0  0  0  0  0  0  0
    1.7034   -0.3605   -2.1295 H   0  0  0  0  0  0  0  0  0  0  0  0
    2.0125   -1.9719   -1.4958 H   0  0  0  0  0  0  0  0  0  0  0  0
    4.0433    0.3278   -1.5265 H   0  0  0  0  0  0  0  0  0  0  0  0
    4.3440   -1.2929   -0.8788 H   0  0  0  0  0  0  0  0  0  0  0  0
    3.5803    2.9511    2.2076 H   0  0  0  0  0  0  0  0  0  0  0  0
    4.4461    1.4118    2.3567 H   0  0  0  0  0  0  0  0  0  0  0  0
    4.8720    2.5497    1.0674 H   0  0  0  0  0  0  0  0  0  0  0  0
   -0.1825    2.1765    1.6240 H   0  0  0  0  0  0  0  0  0  0  0  0
   -0.8134    0.9893    2.7647 H   0  0  0  0  0  0  0  0  0  0  0  0
   -0.6142   -0.8381    1.0709 H   0  0  0  0  0  0  0  0  0  0  0  0
    0.1883    0.2390   -0.0635 H   0  0  0  0  0  0  0  0  0  0  0  0
   -1.7526    0.0365   -0.8197 H   0  0  0  0  0  0  0  0  0  0  0  0
   -3.9934    0.4417    0.1668 H   0  0  0  0  0  0  0  0  0  0  0  0
   -4.1679   -2.0015    0.4847 H   0  0  0  0  0  0  0  0  0  0  0  0
   -2.4083   -2.1497    0.5645 H   0  0  0  0  0  0  0  0  0  0  0  0
   -3.1905   -1.6149   -0.9342 H   0  0  0  0  0  0  0  0  0  0  0  0
   -4.2311   -0.3684    2.4684 H   0  0  0  0  0  0  0  0  0  0  0  0
   -2.4974   -0.6029    2.6397 H   0  0  0  0  0  0  0  0  0  0  0  0
   -3.1720    1.0345    2.4950 H   0  0  0  0  0  0  0  0  0  0  0  0
   -0.9450    2.3436   -0.5889 H   0  0  0  0  0  0  0  0  0  0  0  0
   -2.0965    1.3575   -2.5315 H   0  0  0  0  0  0  0  0  0  0  0  0
   -2.6743    3.0007   -2.2422 H   0  0  0  0  0  0  0  0  0  0  0  0
   -3.6781    1.6219   -1.7768 H   0  0  0  0  0  0  0  0  0  0  0  0
   -2.6608    3.9516    0.1462 H   0  0  0  0  0  0  0  0  0  0  0  0
   -3.7682    2.6648    0.6067 H   0  0  0  0  0  0  0  0  0  0  0  0
   -2.2671    2.9166    1.5120 H   0  0  0  0  0  0  0  0  0  0  0  0
  1  2  1  0
  2  3  1  0
  4  3  1  6
  4  5  1  0
  4  6  2  0
  4  7  1  0
  7  8  1  0
  8  9  1  0
  9 10  1  0
 10 11  1  0
 11 12  1  0
 11 13  1  0
 10 14  1  0
 14 15  1  0
 14 16  1  0
  1 17  1  0
  1 18  1  0
  1 19  1  0
  2 20  1  0
  2 21  1  0
  5 22  1  0
  5 23  1  0
  5 24  1  0
  8 25  1  0
  8 26  1  0
  9 27  1  0
  9 28  1  0
 10 29  1  1
 11 30  1  1
 12 31  1  0
 12 32  1  0
 12 33  1  0
 13 34  1  0
 13 35  1  0
 13 36  1  0
 14 37  1  1
 15 38  1  0
 15 39  1  0
 15 40  1  0
 16 41  1  0
 16 42  1  0
 16 43  1  0
M  CHG  1  10   1
M  END
$$$$
