VX
     RDKit          3D

 43 42  0  0  0  0  0  0  0  0999 V2000
    3.3403   -2.4881    0.7532 C   0  0  0  0  0  0  0  0  0  0  0  0
    3.7637   -1.0588    1.0217 C   0  0  0  0  0  0  0  0  0  0  0  0
    2.9976   -0.1979    0.1964 O   0  0  0  0  0  0  0  0  0  0  0  0
    2.8373    1.3649    0.5740 P   0  0  1  0  0  0  0  0  0  0  0  0
    4.0410    2.1319    1.6429 C   0  0  0  0  0  0  0  0  0  0  0  0
    1.6890    2.1713    0.0345 O   0  0  0  0  0  0  0  0  0  0  0  0
    1.5404    0.7772    2.4561 S   0  0  0  0  0  0  0  0  0  0  0  0
   -0.1189    0.6917    1.7228 C   0  0  0  0  0  0  0  0  0  0  0  0
   -1.1544    0.2594    2.7614 C   0  0  0  0  0  0  0  0  0  0  0  0
   -2.5323   -0.0629    2.1491 N   0  0  1  0  0  0  0  0  0  0  0  0
   -3.1011    1.1175    1.3078 C   0  0  1  0  0  0  0  0  0  0  0  0
   -4.5237    0.8377    0.8236 C   0  0  0  0  0  0  0  0  0  0  0  0
   -3.1298    2.3989    2.1489 C   0  0  0  0  0  0  0  0  0  0  0  0
   -2.6495   -1.4476    1.4522 C   0  0  2  0  0  0  0  0  0  0  0  0
   -3.9241   -2.1417    1.9522 C   0  0  0  0  0  0  0  0  0  0  0  0
   -1.4795   -2.3993    1.7206 C   0  0  0  0  0  0  0  0  0  0  0  0
    3.9169   -3.1876    1.3649 H   0  0  0  0  0  0  0  0  0  0  0  0
    3.4826   -2.7414   -0.3026 H   0  0  0  0  0  0  0  0  0  0  0  0
    2.2757   -2.6215    0.9722 H   0  0  0  0  0  0  0  0  0  0  0  0
    4.8232   -0.9296    0.7807 H   0  0  0  0  0  0  0  0  0  0  0  0
    3.6094   -0.8155    2.0768 H   0  0  0  0  0  0  0  0  0  0  0  0
    3.5974    2.9883    2.1589 H   0  0  0  0  0  0  0  0  0  0  0  0
    4.4065    1.4346    2.4015 H   0  0  0  0  0  0  0  0  0  0  0  0
    4.8954    2.4893    1.0613 H   0  0  0  0  0  0  0  0  0  0  0  0
   -0.3566    1.6872    1.3391 H   0  0  0  0  0  0  0  0  0  0  0  0
   -0.0856    0.0134    0.8673 H   0  0  0  0  0  0  0  0  0  0  0  0
   -1.3225    1.0505    3.5007 H   0  0  0  0  0  0  0  0  0  0  0  0
   -0.8443   -0.6164    3.3378 H   0  0  0  0  0  0  0  0  0  0  0  0
   -3.1491   -0.1236    2.9706 H   0  0  0  0  0  0  0  0  0  0  0  0
   -2.4418    1.2346    0.4415 H   0  0  0  0  0  0  0  0  0  0  0  0
   -4.5651   -0.0033    0.1264 H   0  0  0  0  0  0  0  0  0  0  0  0
   -4.9165    1.7040    0.2783 H   0  0  0  0  0  0  0  0  0  0  0  0
   -5.2027    0.6458    1.6607 H   0  0  0  0  0  0  0  0  0  0  0  0
   -3.6672    2.2455    3.0911 H   0  0  0  0  0  0  0  0  0  0  0  0
   -3.6334    3.2060    1.6046 H   0  0  0  0  0  0  0  0  0  0  0  0
   -2.1273    2.7674    2.3815 H   0  0  0  0  0  0  0  0  0  0  0  0
   -2.6992   -1.2558    0.3753 H   0  0  0  0  0  0  0  0  0  0  0  0
   -3.8705   -2.3342    3.0300 H   0  0  0  0  0  0  0  0  0  0  0  0
   -4.0554   -3.1066    1.4494 H   0  0  0  0  0  0  0  0  0  0  0  0
   -4.8303   -1.5642    1.7680 H   0  0  0  0  0  0  0  0  0  0  0  0
   -1.6463   -3.3491    1.1980 H   0  0  0  0  0  0  0  0  0  0  0  0
   -0.5269   -2.0163    1.3512 H   0  0  0  0  0  0  0  0  0  0  0  0
   -1.3792   -2.6382    2.7846 H   0  0  0  0  0  0  0  0  0  0  0  0
  1  2  1  0
  2  3  1  0
  4  3  1  6
  4  5  1  0
  4  6  2  0
  4  7  1  0
  7  8  1  0
  8  9  1  0
  9 10  1  0
 10 11  1  0
 11 12  1  0
 11 13  1  0
 10 14  1  0
 14 15  1  0
 14 16  1  0
  1 17  1  0
  1 18  1  0
  1 19  1  0
  2 20  1  0
  2 21  1  0
  5 22  1  0
  5 23  1  0
  5 24  1  0
  8 25  1  0
  8 26  1  0
  9 27  1  0
  9 28  1  0
 10 29  1  6
 11 30  1  1
 12 31  1  0
 12 32  1  0
 12 33  1  0
 13 34  1  0
 13 35  1  0
 13 36  1  0
 14 37  1  6
 15 38  1  0
 15 39  1  0
 15 40  1  0
 16 41  1  0
 16 42  1  0
 16 43  1  0
M  CHG  1  10   1
M  END
$$$$
