VX
     RDKit          3D

 43 42  0  0  0  0  0  0  0  0999 V2000
    3.4735   -2.0122   -1.2798 C   0  0  0  0  0  0  0  0  0  0  0  0
    3.6216   -0.5239   -1.0407 C   0  0  0  0  0  0  0  0  0  0  0  0
    2.9892   -0.1997    0.1901 O   0  0  0  0  0  0  0  0  0  0  0  0
    2.8431    1.3656    0.5782 P   0  0  1  0  0  0  0  0  0  0  0  0
    4.0396    2.1389    1.6441 C   0  0  0  0  0  0  0  0  0  0  0  0
    1.6930    2.1652    0.0354 O   0  0  0  0  0  0  0  0  0  0  0  0
    1.5462    0.7780    2.4603 S   0  0  0  0  0  0  0  0  0  0  0  0
   -0.1695    1.0325    1.9000 C   0  0  0  0  0  0  0  0  0  0  0  0
   -0.5622    0.2766    0.6211 C   0  0  0  0  0  0  0  0  0  0  0  0
   -1.0618   -1.1648    0.7882 N   0  0  2  0  0  0  0  0  0  0  0  0
   -2.5624   -1.3670    1.0421 C   0  0  2  0  0  0  0  0  0  0  0  0
   -3.3235   -1.1778   -0.2728 C   0  0  0  0  0  0  0  0  0  0  0  0
   -3.1168   -0.4580    2.1303 C   0  0  0  0  0  0  0  0  0  0  0  0
   -0.1017   -2.1327    1.4904 C   0  0  1  0  0  0  0  0  0  0  0  0
   -0.3905   -2.2838    2.9785 C   0  0  0  0  0  0  0  0  0  0  0  0
   -0.1529   -3.4913    0.7840 C   0  0  0  0  0  0  0  0  0  0  0  0
    3.9422   -2.5820   -0.4700 H   0  0  0  0  0  0  0  0  0  0  0  0
    3.9363   -2.3017   -2.2277 H   0  0  0  0  0  0  0  0  0  0  0  0
    2.4156   -2.2971   -1.2982 H   0  0  0  0  0  0  0  0  0  0  0  0
    4.6809   -0.2563   -0.9874 H   0  0  0  0  0  0  0  0  0  0  0  0
    3.1523    0.0358   -1.8550 H   0  0  0  0  0  0  0  0  0  0  0  0
    3.5791    2.9513    2.2130 H   0  0  0  0  0  0  0  0  0  0  0  0
    4.8655    2.5609    1.0658 H   0  0  0  0  0  0  0  0  0  0  0  0
    4.4521    1.4158    2.3534 H   0  0  0  0  0  0  0  0  0  0  0  0
   -0.8360    0.8111    2.7339 H   0  0  0  0  0  0  0  0  0  0  0  0
   -0.2645    2.1064    1.7049 H   0  0  0  0  0  0  0  0  0  0  0  0
    0.2597    0.2143   -0.0973 H   0  0  0  0  0  0  0  0  0  0  0  0
   -1.3702    0.8178    0.1192 H   0  0  0  0  0  0  0  0  0  0  0  0
   -0.9723   -1.4827   -0.1855 H   0  0  0  0  0  0  0  0  0  0  0  0
   -2.6925   -2.4103    1.3456 H   0  0  0  0  0  0  0  0  0  0  0  0
   -2.9478   -1.8552   -1.0472 H   0  0  0  0  0  0  0  0  0  0  0  0
   -3.2474   -0.1535   -0.6498 H   0  0  0  0  0  0  0  0  0  0  0  0
   -4.3869   -1.4000   -0.1320 H   0  0  0  0  0  0  0  0  0  0  0  0
   -4.1711   -0.6961    2.3127 H   0  0  0  0  0  0  0  0  0  0  0  0
   -3.0749    0.5979    1.8471 H   0  0  0  0  0  0  0  0  0  0  0  0
   -2.5959   -0.5880    3.0812 H   0  0  0  0  0  0  0  0  0  0  0  0
    0.9050   -1.7361    1.3349 H   0  0  0  0  0  0  0  0  0  0  0  0
    0.3843   -2.9018    3.4467 H   0  0  0  0  0  0  0  0  0  0  0  0
   -1.3476   -2.7811    3.1652 H   0  0  0  0  0  0  0  0  0  0  0  0
   -0.3967   -1.3276    3.5041 H   0  0  0  0  0  0  0  0  0  0  0  0
    0.0857   -3.3920   -0.2804 H   0  0  0  0  0  0  0  0  0  0  0  0
    0.5842   -4.1732    1.2221 H   0  0  0  0  0  0  0  0  0  0  0  0
   -1.1346   -3.9668    0.8701 H   0  0  0  0  0  0  0  0  0  0  0  0
  1  2  1  0
  2  3  1  0
  4  3  1  6
  4  5  1  0
  4  6  2  0
  4  7  1  0
  7  8  1  0
  8  9  1  0
  9 10  1  0
 10 11  1  0
 11 12  1  0
 11 13  1  0
 10 14  1  0
 14 15  1  0
 14 16  1  0
  1 17  1  0
  1 18  1  0
  1 19  1  0
  2 20  1  0
  2 21  1  0
  5 22  1  0
  5 23  1  0
  5 24  1  0
  8 25  1  0
  8 26  1  0
  9 27  1  0
  9 28  1  0
 10 29  1  6
 11 30  1  1
 12 31  1  0
 12 32  1  0
 12 33  1  0
 13 34  1  0
 13 35  1  0
 13 36  1  0
 14 37  1  6
 15 38  1  0
 15 39  1  0
 15 40  1  0
 16 41  1  0
 16 42  1  0
 16 43  1  0
M  CHG  1  10   1
M  END
$$$$
