VX
     RDKit          3D

 43 42  0  0  0  0  0  0  0  0999 V2000
    2.4804   -0.8970   -2.0385 C   0  0  0  0  0  0  0  0  0  0  0  0
    3.5770   -0.5489   -1.0513 C   0  0  0  0  0  0  0  0  0  0  0  0
    2.9980   -0.1969    0.1970 O   0  0  0  0  0  0  0  0  0  0  0  0
    2.8382    1.3645    0.5745 P   0  0  1  0  0  0  0  0  0  0  0  0
    4.0402    2.1307    1.6420 C   0  0  0  0  0  0  0  0  0  0  0  0
    1.6885    2.1717    0.0343 O   0  0  0  0  0  0  0  0  0  0  0  0
    1.5413    0.7768    2.4566 S   0  0  0  0  0  0  0  0  0  0  0  0
   -0.0612    0.3962    1.7009 C   0  0  0  0  0  0  0  0  0  0  0  0
   -0.8747    1.6782    1.4647 C   0  0  0  0  0  0  0  0  0  0  0  0
   -1.9688    1.4592    0.4114 N   0  0  1  0  0  0  0  0  0  0  0  0
   -3.2464    2.2861    0.6271 C   0  0  1  0  0  0  0  0  0  0  0  0
   -4.1330    1.5522    1.6340 C   0  0  0  0  0  0  0  0  0  0  0  0
   -2.9694    3.7178    1.0839 C   0  0  0  0  0  0  0  0  0  0  0  0
   -1.4057    1.4531   -1.0255 C   0  0  1  0  0  0  0  0  0  0  0  0
   -2.3082    0.5988   -1.9164 C   0  0  0  0  0  0  0  0  0  0  0  0
   -1.2078    2.8504   -1.5968 C   0  0  0  0  0  0  0  0  0  0  0  0
    1.8476   -1.7011   -1.6478 H   0  0  0  0  0  0  0  0  0  0  0  0
    2.9063   -1.2153   -2.9941 H   0  0  0  0  0  0  0  0  0  0  0  0
    1.8266   -0.0367   -2.2151 H   0  0  0  0  0  0  0  0  0  0  0  0
    4.2215   -1.4176   -0.8858 H   0  0  0  0  0  0  0  0  0  0  0  0
    4.2006    0.2635   -1.4370 H   0  0  0  0  0  0  0  0  0  0  0  0
    4.4422    1.4049    2.3550 H   0  0  0  0  0  0  0  0  0  0  0  0
    3.5809    2.9474    2.2064 H   0  0  0  0  0  0  0  0  0  0  0  0
    4.8738    2.5454    1.0694 H   0  0  0  0  0  0  0  0  0  0  0  0
   -0.6147   -0.2689    2.3724 H   0  0  0  0  0  0  0  0  0  0  0  0
    0.1239   -0.1625    0.7798 H   0  0  0  0  0  0  0  0  0  0  0  0
   -1.3717    1.9354    2.4051 H   0  0  0  0  0  0  0  0  0  0  0  0
   -0.2864    2.5385    1.1403 H   0  0  0  0  0  0  0  0  0  0  0  0
   -2.2712    0.4882    0.5572 H   0  0  0  0  0  0  0  0  0  0  0  0
   -3.7733    2.3109   -0.3307 H   0  0  0  0  0  0  0  0  0  0  0  0
   -3.6461    1.4512    2.6094 H   0  0  0  0  0  0  0  0  0  0  0  0
   -4.3837    0.5486    1.2756 H   0  0  0  0  0  0  0  0  0  0  0  0
   -5.0733    2.0935    1.7840 H   0  0  0  0  0  0  0  0  0  0  0  0
   -3.9043    4.2893    1.0891 H   0  0  0  0  0  0  0  0  0  0  0  0
   -2.5692    3.7611    2.1011 H   0  0  0  0  0  0  0  0  0  0  0  0
   -2.2763    4.2442    0.4258 H   0  0  0  0  0  0  0  0  0  0  0  0
   -0.4358    0.9527   -0.9727 H   0  0  0  0  0  0  0  0  0  0  0  0
   -2.4655   -0.3951   -1.4854 H   0  0  0  0  0  0  0  0  0  0  0  0
   -3.2882    1.0572   -2.0777 H   0  0  0  0  0  0  0  0  0  0  0  0
   -1.8450    0.4611   -2.8992 H   0  0  0  0  0  0  0  0  0  0  0  0
   -0.5822    3.4731   -0.9510 H   0  0  0  0  0  0  0  0  0  0  0  0
   -0.7037    2.7893   -2.5679 H   0  0  0  0  0  0  0  0  0  0  0  0
   -2.1603    3.3624   -1.7650 H   0  0  0  0  0  0  0  0  0  0  0  0
  1  2  1  0
  2  3  1  0
  4  3  1  6
  4  5  1  0
  4  6  2  0
  4  7  1  0
  7  8  1  0
  8  9  1  0
  9 10  1  0
 10 11  1  0
 11 12  1  0
 11 13  1  0
 10 14  1  0
 14 15  1  0
 14 16  1  0
  1 17  1  0
  1 18  1  0
  1 19  1  0
  2 20  1  0
  2 21  1  0
  5 22  1  0
  5 23  1  0
  5 24  1  0
  8 25  1  0
  8 26  1  0
  9 27  1  0
  9 28  1  0
 10 29  1  6
 11 30  1  1
 12 31  1  0
 12 32  1  0
 12 33  1  0
 13 34  1  0
 13 35  1  0
 13 36  1  0
 14 37  1  6
 15 38  1  0
 15 39  1  0
 15 40  1  0
 16 41  1  0
 16 42  1  0
 16 43  1  0
M  CHG  1  10   1
M  END
$$$$
