VX
     RDKit          3D

 43 42  0  0  0  0  0  0  0  0999 V2000
    3.4363   -2.0053   -1.2895 C   0  0  0  0  0  0  0  0  0  0  0  0
    3.6467   -0.5301   -1.0214 C   0  0  0  0  0  0  0  0  0  0  0  0
    3.0033   -0.1982    0.2003 O   0  0  0  0  0  0  0  0  0  0  0  0
    2.8340    1.3657    0.5719 P   0  0  1  0  0  0  0  0  0  0  0  0
    4.0396    2.1270    1.6404 C   0  0  0  0  0  0  0  0  0  0  0  0
    1.6880    2.1756    0.0351 O   0  0  0  0  0  0  0  0  0  0  0  0
    1.5371    0.7780    2.4540 S   0  0  0  0  0  0  0  0  0  0  0  0
   -0.0101    0.2101    1.7021 C   0  0  0  0  0  0  0  0  0  0  0  0
   -1.2021    0.7345    2.5067 C   0  0  0  0  0  0  0  0  0  0  0  0
   -2.5348    0.3260    1.8695 N   0  0  1  0  0  0  0  0  0  0  0  0
   -3.6857    0.1159    2.8708 C   0  0  1  0  0  0  0  0  0  0  0  0
   -3.5888   -1.3038    3.4338 C   0  0  0  0  0  0  0  0  0  0  0  0
   -3.7035    1.1528    3.9934 C   0  0  0  0  0  0  0  0  0  0  0  0
   -2.8817    1.1456    0.6142 C   0  0  2  0  0  0  0  0  0  0  0  0
   -3.5325    2.4833    0.9415 C   0  0  0  0  0  0  0  0  0  0  0  0
   -3.7485    0.2995   -0.3178 C   0  0  0  0  0  0  0  0  0  0  0  0
    2.3674   -2.2313   -1.3806 H   0  0  0  0  0  0  0  0  0  0  0  0
    3.8212   -2.6090   -0.4596 H   0  0  0  0  0  0  0  0  0  0  0  0
    3.9415   -2.3097   -2.2110 H   0  0  0  0  0  0  0  0  0  0  0  0
    3.2247    0.0617   -1.8381 H   0  0  0  0  0  0  0  0  0  0  0  0
    4.7136   -0.3122   -0.9385 H   0  0  0  0  0  0  0  0  0  0  0  0
    3.5856    2.9444    2.2075 H   0  0  0  0  0  0  0  0  0  0  0  0
    4.8758    2.5363    1.0670 H   0  0  0  0  0  0  0  0  0  0  0  0
    4.4365    1.3945    2.3501 H   0  0  0  0  0  0  0  0  0  0  0  0
   -0.0498    0.5508    0.6670 H   0  0  0  0  0  0  0  0  0  0  0  0
   -0.0051   -0.8850    1.6882 H   0  0  0  0  0  0  0  0  0  0  0  0
   -1.2052    1.8250    2.5972 H   0  0  0  0  0  0  0  0  0  0  0  0
   -1.1704    0.2872    3.5060 H   0  0  0  0  0  0  0  0  0  0  0  0
   -2.3549   -0.6147    1.4988 H   0  0  0  0  0  0  0  0  0  0  0  0
   -4.6186    0.1858    2.3036 H   0  0  0  0  0  0  0  0  0  0  0  0
   -3.6271   -2.0493    2.6323 H   0  0  0  0  0  0  0  0  0  0  0  0
   -2.6603   -1.4536    3.9929 H   0  0  0  0  0  0  0  0  0  0  0  0
   -4.4252   -1.5031    4.1125 H   0  0  0  0  0  0  0  0  0  0  0  0
   -2.8659    1.0353    4.6845 H   0  0  0  0  0  0  0  0  0  0  0  0
   -3.6906    2.1779    3.6189 H   0  0  0  0  0  0  0  0  0  0  0  0
   -4.6174    1.0367    4.5878 H   0  0  0  0  0  0  0  0  0  0  0  0
   -1.9378    1.3404    0.0954 H   0  0  0  0  0  0  0  0  0  0  0  0
   -3.6668    3.0662    0.0244 H   0  0  0  0  0  0  0  0  0  0  0  0
   -4.5233    2.3650    1.3880 H   0  0  0  0  0  0  0  0  0  0  0  0
   -2.9105    3.0818    1.6128 H   0  0  0  0  0  0  0  0  0  0  0  0
   -4.7271    0.0682    0.1140 H   0  0  0  0  0  0  0  0  0  0  0  0
   -3.9240    0.8335   -1.2576 H   0  0  0  0  0  0  0  0  0  0  0  0
   -3.2520   -0.6459   -0.5647 H   0  0  0  0  0  0  0  0  0  0  0  0
  1  2  1  0
  2  3  1  0
  4  3  1  6
  4  5  1  0
  4  6  2  0
  4  7  1  0
  7  8  1  0
  8  9  1  0
  9 10  1  0
 10 11  1  0
 11 12  1  0
 11 13  1  0
 10 14  1  0
 14 15  1  0
 14 16  1  0
  1 17  1  0
  1 18  1  0
  1 19  1  0
  2 20  1  0
  2 21  1  0
  5 22  1  0
  5 23  1  0
  5 24  1  0
  8 25  1  0
  8 26  1  0
  9 27  1  0
  9 28  1  0
 10 29  1  1
 11 30  1  1
 12 31  1  0
 12 32  1  0
 12 33  1  0
 13 34  1  0
 13 35  1  0
 13 36  1  0
 14 37  1  6
 15 38  1  0
 15 39  1  0
 15 40  1  0
 16 41  1  0
 16 42  1  0
 16 43  1  0
M  CHG  1  10   1
M  END
$$$$
