VX
     RDKit          3D

 43 42  0  0  0  0  0  0  0  0999 V2000
    3.5231   -1.9674   -1.3009 C   0  0  0  0  0  0  0  0  0  0  0  0
    3.7428   -0.5085   -0.9669 C   0  0  0  0  0  0  0  0  0  0  0  0
    3.0124   -0.2025    0.2052 O   0  0  0  0  0  0  0  0  0  0  0  0
    2.8255    1.3678    0.5667 P   0  0  1  0  0  0  0  0  0  0  0  0
    4.0408    2.1221    1.6397 C   0  0  0  0  0  0  0  0  0  0  0  0
    1.6863    2.1827    0.0362 O   0  0  0  0  0  0  0  0  0  0  0  0
    1.5286    0.7801    2.4488 S   0  0  0  0  0  0  0  0  0  0  0  0
    0.9185   -0.9104    2.1836 C   0  0  0  0  0  0  0  0  0  0  0  0
   -0.0364   -0.9938    0.9908 C   0  0  0  0  0  0  0  0  0  0  0  0
   -0.7089   -2.3840    0.8500 N   0  0  1  0  0  0  0  0  0  0  0  0
    0.2376   -3.5545    0.5307 C   0  0  2  0  0  0  0  0  0  0  0  0
    1.2849   -3.1517   -0.5032 C   0  0  0  0  0  0  0  0  0  0  0  0
   -0.5480   -4.7355   -0.0440 C   0  0  0  0  0  0  0  0  0  0  0  0
   -1.7572   -2.6029    1.9611 C   0  0  2  0  0  0  0  0  0  0  0  0
   -1.2928   -3.5528    3.0580 C   0  0  0  0  0  0  0  0  0  0  0  0
   -3.0917   -3.0201    1.3532 C   0  0  0  0  0  0  0  0  0  0  0  0
    4.2466   -2.3156   -2.0268 H   0  0  0  0  0  0  0  0  0  0  0  0
    2.5093   -2.1261   -1.6783 H   0  0  0  0  0  0  0  0  0  0  0  0
    3.6357   -2.5877   -0.4134 H   0  0  0  0  0  0  0  0  0  0  0  0
    3.4115    0.1282   -1.7875 H   0  0  0  0  0  0  0  0  0  0  0  0
    4.7950   -0.3334   -0.7719 H   0  0  0  0  0  0  0  0  0  0  0  0
    3.5820    2.8765    2.2877 H   0  0  0  0  0  0  0  0  0  0  0  0
    4.8235    2.6105    1.0501 H   0  0  0  0  0  0  0  0  0  0  0  0
    4.5050    1.3645    2.2745 H   0  0  0  0  0  0  0  0  0  0  0  0
    1.7769   -1.5827    2.0742 H   0  0  0  0  0  0  0  0  0  0  0  0
    0.4028   -1.1909    3.1064 H   0  0  0  0  0  0  0  0  0  0  0  0
    0.4592   -0.7753    0.0402 H   0  0  0  0  0  0  0  0  0  0  0  0
   -0.8618   -0.2737    1.0846 H   0  0  0  0  0  0  0  0  0  0  0  0
   -1.2542   -2.2758   -0.0121 H   0  0  0  0  0  0  0  0  0  0  0  0
    0.7539   -3.8322    1.4600 H   0  0  0  0  0  0  0  0  0  0  0  0
    1.8946   -4.0179   -0.7980 H   0  0  0  0  0  0  0  0  0  0  0  0
    1.9849   -2.4205   -0.0976 H   0  0  0  0  0  0  0  0  0  0  0  0
    0.8203   -2.7541   -1.4188 H   0  0  0  0  0  0  0  0  0  0  0  0
    0.1378   -5.5627   -0.2778 H   0  0  0  0  0  0  0  0  0  0  0  0
   -1.2863   -5.1354    0.6503 H   0  0  0  0  0  0  0  0  0  0  0  0
   -1.0702   -4.4559   -0.9764 H   0  0  0  0  0  0  0  0  0  0  0  0
   -1.9171   -1.6262    2.4251 H   0  0  0  0  0  0  0  0  0  0  0  0
   -0.3293   -3.2477    3.4786 H   0  0  0  0  0  0  0  0  0  0  0  0
   -1.2160   -4.5910    2.7322 H   0  0  0  0  0  0  0  0  0  0  0  0
   -2.0084   -3.5450    3.8837 H   0  0  0  0  0  0  0  0  0  0  0  0
   -3.4131   -2.3070    0.5859 H   0  0  0  0  0  0  0  0  0  0  0  0
   -3.8632   -3.0414    2.1324 H   0  0  0  0  0  0  0  0  0  0  0  0
   -3.0635   -4.0192    0.9175 H   0  0  0  0  0  0  0  0  0  0  0  0
  1  2  1  0
  2  3  1  0
  4  3  1  6
  4  5  1  0
  4  6  2  0
  4  7  1  0
  7  8  1  0
  8  9  1  0
  9 10  1  0
 10 11  1  0
 11 12  1  0
 11 13  1  0
 10 14  1  0
 14 15  1  0
 14 16  1  0
  1 17  1  0
  1 18  1  0
  1 19  1  0
  2 20  1  0
  2 21  1  0
  5 22  1  0
  5 23  1  0
  5 24  1  0
  8 25  1  0
  8 26  1  0
  9 27  1  0
  9 28  1  0
 10 29  1  1
 11 30  1  1
 12 31  1  0
 12 32  1  0
 12 33  1  0
 13 34  1  0
 13 35  1  0
 13 36  1  0
 14 37  1  1
 15 38  1  0
 15 39  1  0
 15 40  1  0
 16 41  1  0
 16 42  1  0
 16 43  1  0
M  CHG  1  10   1
M  END
$$$$
