VX
     RDKit          3D

 43 42  0  0  0  0  0  0  0  0999 V2000
    3.6362   -2.0317   -1.1823 C   0  0  0  0  0  0  0  0  0  0  0  0
    3.5078   -0.5258   -1.0838 C   0  0  0  0  0  0  0  0  0  0  0  0
    3.0096   -0.1972    0.2049 O   0  0  0  0  0  0  0  0  0  0  0  0
    2.8297    1.3660    0.5691 P   0  0  1  0  0  0  0  0  0  0  0  0
    4.0390    2.1215    1.6383 C   0  0  0  0  0  0  0  0  0  0  0  0
    1.6866    2.1799    0.0355 O   0  0  0  0  0  0  0  0  0  0  0  0
    1.5328    0.7783    2.4512 S   0  0  0  0  0  0  0  0  0  0  0  0
    0.1688   -0.1520    1.6768 C   0  0  0  0  0  0  0  0  0  0  0  0
   -1.0078   -0.3001    2.6420 C   0  0  0  0  0  0  0  0  0  0  0  0
   -1.4652    1.0505    3.2067 N   0  0  2  0  0  0  0  0  0  0  0  0
   -2.0410    0.9883    4.6296 C   0  0  1  0  0  0  0  0  0  0  0  0
   -3.2316    0.0412    4.7085 C   0  0  0  0  0  0  0  0  0  0  0  0
   -0.9464    0.6303    5.6348 C   0  0  0  0  0  0  0  0  0  0  0  0
   -2.2982    1.9650    2.2830 C   0  0  1  0  0  0  0  0  0  0  0  0
   -1.3899    2.9958    1.6180 C   0  0  0  0  0  0  0  0  0  0  0  0
   -3.1288    1.1993    1.2596 C   0  0  0  0  0  0  0  0  0  0  0  0
    4.3151   -2.4118   -0.4118 H   0  0  0  0  0  0  0  0  0  0  0  0
    2.6663   -2.5130   -1.0175 H   0  0  0  0  0  0  0  0  0  0  0  0
    4.0152   -2.3280   -2.1643 H   0  0  0  0  0  0  0  0  0  0  0  0
    4.4835   -0.0549   -1.2339 H   0  0  0  0  0  0  0  0  0  0  0  0
    2.8133   -0.1574   -1.8451 H   0  0  0  0  0  0  0  0  0  0  0  0
    4.4528    1.3871    2.3351 H   0  0  0  0  0  0  0  0  0  0  0  0
    4.8627    2.5475    1.0595 H   0  0  0  0  0  0  0  0  0  0  0  0
    3.5832    2.9276    2.2201 H   0  0  0  0  0  0  0  0  0  0  0  0
    0.5411   -1.1401    1.3888 H   0  0  0  0  0  0  0  0  0  0  0  0
   -0.1426    0.3578    0.7622 H   0  0  0  0  0  0  0  0  0  0  0  0
   -1.8632   -0.7985    2.1793 H   0  0  0  0  0  0  0  0  0  0  0  0
   -0.6926   -0.9239    3.4830 H   0  0  0  0  0  0  0  0  0  0  0  0
   -0.5712    1.5526    3.3355 H   0  0  0  0  0  0  0  0  0  0  0  0
   -2.3679    2.0072    4.8692 H   0  0  0  0  0  0  0  0  0  0  0  0
   -4.0339    0.3495    4.0327 H   0  0  0  0  0  0  0  0  0  0  0  0
   -2.9560   -0.9904    4.4683 H   0  0  0  0  0  0  0  0  0  0  0  0
   -3.6465    0.0403    5.7225 H   0  0  0  0  0  0  0  0  0  0  0  0
   -0.0776    1.2878    5.5259 H   0  0  0  0  0  0  0  0  0  0  0  0
   -1.3234    0.7524    6.6564 H   0  0  0  0  0  0  0  0  0  0  0  0
   -0.6090   -0.4056    5.5412 H   0  0  0  0  0  0  0  0  0  0  0  0
   -2.9885    2.5167    2.9314 H   0  0  0  0  0  0  0  0  0  0  0  0
   -1.9914    3.7395    1.0835 H   0  0  0  0  0  0  0  0  0  0  0  0
   -0.7880    3.5329    2.3585 H   0  0  0  0  0  0  0  0  0  0  0  0
   -0.7173    2.5412    0.8881 H   0  0  0  0  0  0  0  0  0  0  0  0
   -2.5066    0.7025    0.5090 H   0  0  0  0  0  0  0  0  0  0  0  0
   -3.7700    0.4507    1.7332 H   0  0  0  0  0  0  0  0  0  0  0  0
   -3.7857    1.8909    0.7197 H   0  0  0  0  0  0  0  0  0  0  0  0
  1  2  1  0
  2  3  1  0
  4  3  1  6
  4  5  1  0
  4  6  2  0
  4  7  1  0
  7  8  1  0
  8  9  1  0
  9 10  1  0
 10 11  1  0
 11 12  1  0
 11 13  1  0
 10 14  1  0
 14 15  1  0
 14 16  1  0
  1 17  1  0
  1 18  1  0
  1 19  1  0
  2 20  1  0
  2 21  1  0
  5 22  1  0
  5 23  1  0
  5 24  1  0
  8 25  1  0
  8 26  1  0
  9 27  1  0
  9 28  1  0
 10 29  1  1
 11 30  1  6
 12 31  1  0
 12 32  1  0
 12 33  1  0
 13 34  1  0
 13 35  1  0
 13 36  1  0
 14 37  1  6
 15 38  1  0
 15 39  1  0
 15 40  1  0
 16 41  1  0
 16 42  1  0
 16 43  1  0
M  CHG  1  10   1
M  END
$$$$
