VX
     RDKit          3D

 43 42  0  0  0  0  0  0  0  0999 V2000
    3.6531   -2.0353   -1.1685 C   0  0  0  0  0  0  0  0  0  0  0  0
    3.5203   -0.5288   -1.0784 C   0  0  0  0  0  0  0  0  0  0  0  0
    3.0066   -0.1965    0.2030 O   0  0  0  0  0  0  0  0  0  0  0  0
    2.8320    1.3654    0.5705 P   0  0  1  0  0  0  0  0  0  0  0  0
    4.0392    2.1236    1.6390 C   0  0  0  0  0  0  0  0  0  0  0  0
    1.6872    2.1776    0.0352 O   0  0  0  0  0  0  0  0  0  0  0  0
    1.5351    0.7777    2.4526 S   0  0  0  0  0  0  0  0  0  0  0  0
    0.2725    2.0891    2.5244 C   0  0  0  0  0  0  0  0  0  0  0  0
   -0.8920    1.8448    1.5478 C   0  0  0  0  0  0  0  0  0  0  0  0
   -1.4119    0.4006    1.5841 N   0  0  2  0  0  0  0  0  0  0  0  0
   -1.7182   -0.2123    0.1989 C   0  0  1  0  0  0  0  0  0  0  0  0
   -2.4098    0.7660   -0.7503 C   0  0  0  0  0  0  0  0  0  0  0  0
   -0.4299   -0.7600   -0.4108 C   0  0  0  0  0  0  0  0  0  0  0  0
   -2.4889    0.0535    2.6231 C   0  0  1  0  0  0  0  0  0  0  0  0
   -2.0342    0.3825    4.0399 C   0  0  0  0  0  0  0  0  0  0  0  0
   -3.8348    0.6995    2.3138 C   0  0  0  0  0  0  0  0  0  0  0  0
    2.6836   -2.5190   -1.0052 H   0  0  0  0  0  0  0  0  0  0  0  0
    4.0379   -2.3355   -2.1472 H   0  0  0  0  0  0  0  0  0  0  0  0
    4.3301   -2.4096   -0.3933 H   0  0  0  0  0  0  0  0  0  0  0  0
    2.8318   -0.1654   -1.8488 H   0  0  0  0  0  0  0  0  0  0  0  0
    4.4967   -0.0553   -1.2207 H   0  0  0  0  0  0  0  0  0  0  0  0
    4.4574    1.3878    2.3318 H   0  0  0  0  0  0  0  0  0  0  0  0
    3.5839    2.9253    2.2264 H   0  0  0  0  0  0  0  0  0  0  0  0
    4.8598    2.5552    1.0604 H   0  0  0  0  0  0  0  0  0  0  0  0
   -0.0837    2.1498    3.5542 H   0  0  0  0  0  0  0  0  0  0  0  0
    0.7425    3.0534    2.3061 H   0  0  0  0  0  0  0  0  0  0  0  0
   -0.5408    2.0420    0.5345 H   0  0  0  0  0  0  0  0  0  0  0  0
   -1.7300    2.5171    1.7480 H   0  0  0  0  0  0  0  0  0  0  0  0
   -0.5871   -0.1300    1.9097 H   0  0  0  0  0  0  0  0  0  0  0  0
   -2.3849   -1.0625    0.3815 H   0  0  0  0  0  0  0  0  0  0  0  0
   -3.2273    1.3123   -0.2763 H   0  0  0  0  0  0  0  0  0  0  0  0
   -2.8306    0.2177   -1.6006 H   0  0  0  0  0  0  0  0  0  0  0  0
   -1.7143    1.4998   -1.1700 H   0  0  0  0  0  0  0  0  0  0  0  0
    0.0560   -1.4727    0.2631 H   0  0  0  0  0  0  0  0  0  0  0  0
    0.2799    0.0376   -0.6402 H   0  0  0  0  0  0  0  0  0  0  0  0
   -0.6449   -1.2872   -1.3463 H   0  0  0  0  0  0  0  0  0  0  0  0
   -2.5982   -1.0371    2.5681 H   0  0  0  0  0  0  0  0  0  0  0  0
   -2.0296    1.4606    4.2263 H   0  0  0  0  0  0  0  0  0  0  0  0
   -1.0428   -0.0271    4.2514 H   0  0  0  0  0  0  0  0  0  0  0  0
   -2.7259   -0.0597    4.7669 H   0  0  0  0  0  0  0  0  0  0  0  0
   -3.7658    1.7873    2.2257 H   0  0  0  0  0  0  0  0  0  0  0  0
   -4.5530    0.4807    3.1132 H   0  0  0  0  0  0  0  0  0  0  0  0
   -4.2681    0.2988    1.3936 H   0  0  0  0  0  0  0  0  0  0  0  0
  1  2  1  0
  2  3  1  0
  4  3  1  6
  4  5  1  0
  4  6  2  0
  4  7  1  0
  7  8  1  0
  8  9  1  0
  9 10  1  0
 10 11  1  0
 11 12  1  0
 11 13  1  0
 10 14  1  0
 14 15  1  0
 14 16  1  0
  1 17  1  0
  1 18  1  0
  1 19  1  0
  2 20  1  0
  2 21  1  0
  5 22  1  0
  5 23  1  0
  5 24  1  0
  8 25  1  0
  8 26  1  0
  9 27  1  0
  9 28  1  0
 10 29  1  1
 11 30  1  6
 12 31  1  0
 12 32  1  0
 12 33  1  0
 13 34  1  0
 13 35  1  0
 13 36  1  0
 14 37  1  6
 15 38  1  0
 15 39  1  0
 15 40  1  0
 16 41  1  0
 16 42  1  0
 16 43  1  0
M  CHG  1  10   1
M  END
$$$$
