VX
     RDKit          3D

 43 42  0  0  0  0  0  0  0  0999 V2000
    3.5179   -2.0278   -1.2352 C   0  0  0  0  0  0  0  0  0  0  0  0
    3.6201   -0.5301   -1.0342 C   0  0  0  0  0  0  0  0  0  0  0  0
    3.0037   -0.1964    0.2011 O   0  0  0  0  0  0  0  0  0  0  0  0
    2.8337    1.3652    0.5716 P   0  0  1  0  0  0  0  0  0  0  0  0
    4.0393    2.1259    1.6399 C   0  0  0  0  0  0  0  0  0  0  0  0
    1.6882    2.1753    0.0352 O   0  0  0  0  0  0  0  0  0  0  0  0
    1.5368    0.7776    2.4537 S   0  0  0  0  0  0  0  0  0  0  0  0
    0.2207    2.0390    2.4830 C   0  0  0  0  0  0  0  0  0  0  0  0
   -0.8860    1.7557    1.4508 C   0  0  0  0  0  0  0  0  0  0  0  0
   -1.3282    0.2710    1.4907 N   0  0  1  0  0  0  0  0  0  0  0  0
   -2.2761    0.0528    2.6842 C   0  0  1  0  0  0  0  0  0  0  0  0
   -3.7288    0.3643    2.3411 C   0  0  0  0  0  0  0  0  0  0  0  0
   -2.0720   -1.3191    3.3200 C   0  0  0  0  0  0  0  0  0  0  0  0
   -1.7531   -0.2727    0.1097 C   0  0  2  0  0  0  0  0  0  0  0  0
   -2.1083   -1.7585    0.1796 C   0  0  0  0  0  0  0  0  0  0  0  0
   -0.6055   -0.1346   -0.9023 C   0  0  0  0  0  0  0  0  0  0  0  0
    3.9926   -2.5620   -0.4055 H   0  0  0  0  0  0  0  0  0  0  0  0
    3.9971   -2.3293   -2.1705 H   0  0  0  0  0  0  0  0  0  0  0  0
    2.4695   -2.3432   -1.2585 H   0  0  0  0  0  0  0  0  0  0  0  0
    3.1137   -0.0070   -1.8509 H   0  0  0  0  0  0  0  0  0  0  0  0
    4.6701   -0.2261   -1.0109 H   0  0  0  0  0  0  0  0  0  0  0  0
    4.4679    1.3909    2.3271 H   0  0  0  0  0  0  0  0  0  0  0  0
    4.8532    2.5688    1.0597 H   0  0  0  0  0  0  0  0  0  0  0  0
    3.5781    2.9205    2.2333 H   0  0  0  0  0  0  0  0  0  0  0  0
    0.6573    3.0272    2.3059 H   0  0  0  0  0  0  0  0  0  0  0  0
   -0.1950    2.0540    3.4949 H   0  0  0  0  0  0  0  0  0  0  0  0
   -0.5386    1.9955    0.4501 H   0  0  0  0  0  0  0  0  0  0  0  0
   -1.7707    2.3739    1.6370 H   0  0  0  0  0  0  0  0  0  0  0  0
   -0.4570   -0.2344    1.7208 H   0  0  0  0  0  0  0  0  0  0  0  0
   -1.9631    0.7754    3.4450 H   0  0  0  0  0  0  0  0  0  0  0  0
   -4.3370    0.3501    3.2528 H   0  0  0  0  0  0  0  0  0  0  0  0
   -4.1690   -0.3608    1.6537 H   0  0  0  0  0  0  0  0  0  0  0  0
   -3.8328    1.3582    1.8956 H   0  0  0  0  0  0  0  0  0  0  0  0
   -2.5582   -2.1271    2.7702 H   0  0  0  0  0  0  0  0  0  0  0  0
   -2.5084   -1.3260    4.3264 H   0  0  0  0  0  0  0  0  0  0  0  0
   -1.0086   -1.5592    3.4253 H   0  0  0  0  0  0  0  0  0  0  0  0
   -2.6153    0.3175   -0.2181 H   0  0  0  0  0  0  0  0  0  0  0  0
   -2.2529   -2.1695   -0.8261 H   0  0  0  0  0  0  0  0  0  0  0  0
   -3.0468   -1.9370    0.7054 H   0  0  0  0  0  0  0  0  0  0  0  0
   -1.3136   -2.3401    0.6597 H   0  0  0  0  0  0  0  0  0  0  0  0
   -0.8352   -0.6836   -1.8240 H   0  0  0  0  0  0  0  0  0  0  0  0
    0.3323   -0.5352   -0.5048 H   0  0  0  0  0  0  0  0  0  0  0  0
   -0.4429    0.8994   -1.2142 H   0  0  0  0  0  0  0  0  0  0  0  0
  1  2  1  0
  2  3  1  0
  4  3  1  6
  4  5  1  0
  4  6  2  0
  4  7  1  0
  7  8  1  0
  8  9  1  0
  9 10  1  0
 10 11  1  0
 11 12  1  0
 11 13  1  0
 10 14  1  0
 14 15  1  0
 14 16  1  0
  1 17  1  0
  1 18  1  0
  1 19  1  0
  2 20  1  0
  2 21  1  0
  5 22  1  0
  5 23  1  0
  5 24  1  0
  8 25  1  0
  8 26  1  0
  9 27  1  0
  9 28  1  0
 10 29  1  6
 11 30  1  6
 12 31  1  0
 12 32  1  0
 12 33  1  0
 13 34  1  0
 13 35  1  0
 13 36  1  0
 14 37  1  6
 15 38  1  0
 15 39  1  0
 15 40  1  0
 16 41  1  0
 16 42  1  0
 16 43  1  0
M  CHG  1  10   1
M  END
$$$$
