VX
     RDKit          3D

 43 42  0  0  0  0  0  0  0  0999 V2000
    2.3399   -2.3495   -0.5277 C   0  0  0  0  0  0  0  0  0  0  0  0
    2.0166   -0.8704   -0.5007 C   0  0  0  0  0  0  0  0  0  0  0  0
    3.0324   -0.1952    0.2212 O   0  0  0  0  0  0  0  0  0  0  0  0
    2.8169    1.3657    0.5601 P   0  0  1  0  0  0  0  0  0  0  0  0
    4.0386    2.1020    1.6319 C   0  0  0  0  0  0  0  0  0  0  0  0
    1.6771    2.1976    0.0345 O   0  0  0  0  0  0  0  0  0  0  0  0
    1.5200    0.7780    2.4422 S   0  0  0  0  0  0  0  0  0  0  0  0
    0.3640    2.1725    2.6129 C   0  0  0  0  0  0  0  0  0  0  0  0
   -0.8073    2.0274    1.6393 C   0  0  0  0  0  0  0  0  0  0  0  0
   -1.6413    3.3040    1.4347 N   0  0  1  0  0  0  0  0  0  0  0  0
   -2.6528    3.5930    2.5457 C   0  0  1  0  0  0  0  0  0  0  0  0
   -2.0833    4.2535    3.7941 C   0  0  0  0  0  0  0  0  0  0  0  0
   -3.8430    4.3764    1.9972 C   0  0  0  0  0  0  0  0  0  0  0  0
   -0.8747    4.4041    0.6806 C   0  0  2  0  0  0  0  0  0  0  0  0
   -0.4527    5.5826    1.5399 C   0  0  0  0  0  0  0  0  0  0  0  0
   -1.6762    4.8550   -0.5417 C   0  0  0  0  0  0  0  0  0  0  0  0
    1.5782   -2.9056   -1.0811 H   0  0  0  0  0  0  0  0  0  0  0  0
    3.3145   -2.5231   -0.9958 H   0  0  0  0  0  0  0  0  0  0  0  0
    2.4000   -2.7494    0.4900 H   0  0  0  0  0  0  0  0  0  0  0  0
    1.0484   -0.7044   -0.0180 H   0  0  0  0  0  0  0  0  0  0  0  0
    1.9773   -0.4741   -1.5201 H   0  0  0  0  0  0  0  0  0  0  0  0
    3.6022    2.9265    2.2026 H   0  0  0  0  0  0  0  0  0  0  0  0
    4.4318    1.3643    2.3371 H   0  0  0  0  0  0  0  0  0  0  0  0
    4.8735    2.4946    1.0447 H   0  0  0  0  0  0  0  0  0  0  0  0
    0.9223    3.0986    2.4613 H   0  0  0  0  0  0  0  0  0  0  0  0
    0.0038    2.1509    3.6433 H   0  0  0  0  0  0  0  0  0  0  0  0
   -1.5025    1.2526    1.9844 H   0  0  0  0  0  0  0  0  0  0  0  0
   -0.4870    1.7322    0.6349 H   0  0  0  0  0  0  0  0  0  0  0  0
   -2.2690    2.9574    0.6975 H   0  0  0  0  0  0  0  0  0  0  0  0
   -3.0317    2.6050    2.8355 H   0  0  0  0  0  0  0  0  0  0  0  0
   -1.1163    3.8550    4.0959 H   0  0  0  0  0  0  0  0  0  0  0  0
   -2.7702    4.0914    4.6337 H   0  0  0  0  0  0  0  0  0  0  0  0
   -1.9912    5.3375    3.6926 H   0  0  0  0  0  0  0  0  0  0  0  0
   -4.2525    3.9065    1.0969 H   0  0  0  0  0  0  0  0  0  0  0  0
   -4.6463    4.4113    2.7418 H   0  0  0  0  0  0  0  0  0  0  0  0
   -3.5788    5.4111    1.7613 H   0  0  0  0  0  0  0  0  0  0  0  0
    0.0325    3.9293    0.2977 H   0  0  0  0  0  0  0  0  0  0  0  0
   -1.3029    6.2072    1.8260 H   0  0  0  0  0  0  0  0  0  0  0  0
    0.0870    5.2672    2.4362 H   0  0  0  0  0  0  0  0  0  0  0  0
    0.2279    6.2287    0.9727 H   0  0  0  0  0  0  0  0  0  0  0  0
   -2.5948    5.3791   -0.2680 H   0  0  0  0  0  0  0  0  0  0  0  0
   -1.0793    5.5421   -1.1521 H   0  0  0  0  0  0  0  0  0  0  0  0
   -1.9430    4.0036   -1.1771 H   0  0  0  0  0  0  0  0  0  0  0  0
  1  2  1  0
  2  3  1  0
  4  3  1  6
  4  5  1  0
  4  6  2  0
  4  7  1  0
  7  8  1  0
  8  9  1  0
  9 10  1  0
 10 11  1  0
 11 12  1  0
 11 13  1  0
 10 14  1  0
 14 15  1  0
 14 16  1  0
  1 17  1  0
  1 18  1  0
  1 19  1  0
  2 20  1  0
  2 21  1  0
  5 22  1  0
  5 23  1  0
  5 24  1  0
  8 25  1  0
  8 26  1  0
  9 27  1  0
  9 28  1  0
 10 29  1  1
 11 30  1  6
 12 31  1  0
 12 32  1  0
 12 33  1  0
 13 34  1  0
 13 35  1  0
 13 36  1  0
 14 37  1  6
 15 38  1  0
 15 39  1  0
 15 40  1  0
 16 41  1  0
 16 42  1  0
 16 43  1  0
M  CHG  1  10   1
M  END
$$$$
