VX
     RDKit          3D

 43 42  0  0  0  0  0  0  0  0999 V2000
    4.7236   -1.5286   -0.7720 C   0  0  0  0  0  0  0  0  0  0  0  0
    3.6064   -0.5422   -1.0403 C   0  0  0  0  0  0  0  0  0  0  0  0
    2.9934   -0.1975    0.1936 O   0  0  0  0  0  0  0  0  0  0  0  0
    2.8412    1.3644    0.5765 P   0  0  1  0  0  0  0  0  0  0  0  0
    4.0406    2.1348    1.6435 C   0  0  0  0  0  0  0  0  0  0  0  0
    1.6898    2.1684    0.0342 O   0  0  0  0  0  0  0  0  0  0  0  0
    1.5443    0.7767    2.4586 S   0  0  0  0  0  0  0  0  0  0  0  0
   -0.1547    1.0997    1.9129 C   0  0  0  0  0  0  0  0  0  0  0  0
   -0.5430    0.2149    0.7192 C   0  0  0  0  0  0  0  0  0  0  0  0
   -1.8894    0.6823    0.1103 N   0  0  1  0  0  0  0  0  0  0  0  0
   -1.5996    1.8527   -0.8648 C   0  0  2  0  0  0  0  0  0  0  0  0
   -2.7288    2.8788   -0.8470 C   0  0  0  0  0  0  0  0  0  0  0  0
   -1.2227    1.3731   -2.2623 C   0  0  0  0  0  0  0  0  0  0  0  0
   -2.7531   -0.4923   -0.3995 C   0  0  1  0  0  0  0  0  0  0  0  0
   -3.0743   -1.4479    0.7615 C   0  0  0  0  0  0  0  0  0  0  0  0
   -4.0884   -0.0046   -0.9617 C   0  0  0  0  0  0  0  0  0  0  0  0
    5.2005   -1.8413   -1.7051 H   0  0  0  0  0  0  0  0  0  0  0  0
    4.3410   -2.4154   -0.2555 H   0  0  0  0  0  0  0  0  0  0  0  0
    5.4821   -1.0833   -0.1195 H   0  0  0  0  0  0  0  0  0  0  0  0
    3.9961    0.3443   -1.5508 H   0  0  0  0  0  0  0  0  0  0  0  0
    2.8444   -0.9964   -1.6810 H   0  0  0  0  0  0  0  0  0  0  0  0
    4.4478    1.4106    2.3549 H   0  0  0  0  0  0  0  0  0  0  0  0
    4.8711    2.5509    1.0672 H   0  0  0  0  0  0  0  0  0  0  0  0
    3.5808    2.9496    2.2099 H   0  0  0  0  0  0  0  0  0  0  0  0
   -0.2370    2.1647    1.6787 H   0  0  0  0  0  0  0  0  0  0  0  0
   -0.8297    0.9023    2.7525 H   0  0  0  0  0  0  0  0  0  0  0  0
    0.1884    0.2104   -0.0924 H   0  0  0  0  0  0  0  0  0  0  0  0
   -0.6459   -0.8142    1.0618 H   0  0  0  0  0  0  0  0  0  0  0  0
   -2.4275    1.0881    0.8870 H   0  0  0  0  0  0  0  0  0  0  0  0
   -0.7310    2.3730   -0.4502 H   0  0  0  0  0  0  0  0  0  0  0  0
   -3.0263    3.1264    0.1773 H   0  0  0  0  0  0  0  0  0  0  0  0
   -3.6150    2.5582   -1.3964 H   0  0  0  0  0  0  0  0  0  0  0  0
   -2.3903    3.8072   -1.3210 H   0  0  0  0  0  0  0  0  0  0  0  0
   -0.8819    2.2217   -2.8664 H   0  0  0  0  0  0  0  0  0  0  0  0
   -0.4058    0.6460   -2.2340 H   0  0  0  0  0  0  0  0  0  0  0  0
   -2.0598    0.9194   -2.7967 H   0  0  0  0  0  0  0  0  0  0  0  0
   -2.1729   -1.0125   -1.1691 H   0  0  0  0  0  0  0  0  0  0  0  0
   -3.4417   -0.9039    1.6386 H   0  0  0  0  0  0  0  0  0  0  0  0
   -3.8459   -2.1695    0.4688 H   0  0  0  0  0  0  0  0  0  0  0  0
   -2.2119   -2.0476    1.0620 H   0  0  0  0  0  0  0  0  0  0  0  0
   -4.7524   -0.8514   -1.1708 H   0  0  0  0  0  0  0  0  0  0  0  0
   -4.6073    0.6522   -0.2556 H   0  0  0  0  0  0  0  0  0  0  0  0
   -3.9737    0.5172   -1.9126 H   0  0  0  0  0  0  0  0  0  0  0  0
  1  2  1  0
  2  3  1  0
  4  3  1  6
  4  5  1  0
  4  6  2  0
  4  7  1  0
  7  8  1  0
  8  9  1  0
  9 10  1  0
 10 11  1  0
 11 12  1  0
 11 13  1  0
 10 14  1  0
 14 15  1  0
 14 16  1  0
  1 17  1  0
  1 18  1  0
  1 19  1  0
  2 20  1  0
  2 21  1  0
  5 22  1  0
  5 23  1  0
  5 24  1  0
  8 25  1  0
  8 26  1  0
  9 27  1  0
  9 28  1  0
 10 29  1  6
 11 30  1  1
 12 31  1  0
 12 32  1  0
 12 33  1  0
 13 34  1  0
 13 35  1  0
 13 36  1  0
 14 37  1  1
 15 38  1  0
 15 39  1  0
 15 40  1  0
 16 41  1  0
 16 42  1  0
 16 43  1  0
M  CHG  1  10   1
M  END
$$$$
