VX
     RDKit          3D

 43 42  0  0  0  0  0  0  0  0999 V2000
    3.7953   -2.0049   -1.1407 C   0  0  0  0  0  0  0  0  0  0  0  0
    3.4853   -0.5227   -1.0951 C   0  0  0  0  0  0  0  0  0  0  0  0
    3.0067   -0.1984    0.2026 O   0  0  0  0  0  0  0  0  0  0  0  0
    2.8316    1.3660    0.5704 P   0  0  1  0  0  0  0  0  0  0  0  0
    4.0395    2.1243    1.6395 C   0  0  0  0  0  0  0  0  0  0  0  0
    1.6871    2.1782    0.0353 O   0  0  0  0  0  0  0  0  0  0  0  0
    1.5347    0.7783    2.4525 S   0  0  0  0  0  0  0  0  0  0  0  0
   -0.0675    0.4031    1.6908 C   0  0  0  0  0  0  0  0  0  0  0  0
   -1.1011    0.0618    2.7652 C   0  0  0  0  0  0  0  0  0  0  0  0
   -2.4258   -0.4785    2.1914 N   0  0  1  0  0  0  0  0  0  0  0  0
   -3.0615    0.4822    1.1459 C   0  0  1  0  0  0  0  0  0  0  0  0
   -4.4387   -0.0019    0.6917 C   0  0  0  0  0  0  0  0  0  0  0  0
   -3.2247    1.8832    1.7464 C   0  0  0  0  0  0  0  0  0  0  0  0
   -2.4107   -1.9688    1.7528 C   0  0  2  0  0  0  0  0  0  0  0  0
   -3.6342   -2.6698    2.3589 C   0  0  0  0  0  0  0  0  0  0  0  0
   -1.1709   -2.7546    2.1898 C   0  0  0  0  0  0  0  0  0  0  0  0
    2.9056   -2.5948   -0.8951 H   0  0  0  0  0  0  0  0  0  0  0  0
    4.1520   -2.2993   -2.1314 H   0  0  0  0  0  0  0  0  0  0  0  0
    4.5609   -2.2593   -0.4000 H   0  0  0  0  0  0  0  0  0  0  0  0
    2.7138   -0.2744   -1.8304 H   0  0  0  0  0  0  0  0  0  0  0  0
    4.3862    0.0558   -1.3181 H   0  0  0  0  0  0  0  0  0  0  0  0
    3.5816    2.9359    2.2131 H   0  0  0  0  0  0  0  0  0  0  0  0
    4.4481    1.3944    2.3440 H   0  0  0  0  0  0  0  0  0  0  0  0
    4.8670    2.5443    1.0622 H   0  0  0  0  0  0  0  0  0  0  0  0
   -0.3781    1.2868    1.1276 H   0  0  0  0  0  0  0  0  0  0  0  0
    0.0691   -0.4084    0.9728 H   0  0  0  0  0  0  0  0  0  0  0  0
   -0.7399   -0.6728    3.4896 H   0  0  0  0  0  0  0  0  0  0  0  0
   -1.3613    0.9486    3.3537 H   0  0  0  0  0  0  0  0  0  0  0  0
   -3.0624   -0.4454    2.9992 H   0  0  0  0  0  0  0  0  0  0  0  0
   -2.3857    0.5039    0.2849 H   0  0  0  0  0  0  0  0  0  0  0  0
   -4.3894   -0.9557    0.1606 H   0  0  0  0  0  0  0  0  0  0  0  0
   -5.1299   -0.0967    1.5350 H   0  0  0  0  0  0  0  0  0  0  0  0
   -4.8791    0.7155   -0.0106 H   0  0  0  0  0  0  0  0  0  0  0  0
   -2.2648    2.3711    1.9339 H   0  0  0  0  0  0  0  0  0  0  0  0
   -3.7835    1.8505    2.6880 H   0  0  0  0  0  0  0  0  0  0  0  0
   -3.7706    2.5362    1.0560 H   0  0  0  0  0  0  0  0  0  0  0  0
   -2.4534   -1.9761    0.6588 H   0  0  0  0  0  0  0  0  0  0  0  0
   -3.6863   -3.7097    2.0158 H   0  0  0  0  0  0  0  0  0  0  0  0
   -3.5776   -2.6834    3.4539 H   0  0  0  0  0  0  0  0  0  0  0  0
   -4.5795   -2.1981    2.0870 H   0  0  0  0  0  0  0  0  0  0  0  0
   -1.2497   -3.7917    1.8421 H   0  0  0  0  0  0  0  0  0  0  0  0
   -1.0699   -2.7946    3.2794 H   0  0  0  0  0  0  0  0  0  0  0  0
   -0.2473   -2.3619    1.7618 H   0  0  0  0  0  0  0  0  0  0  0  0
  1  2  1  0
  2  3  1  0
  4  3  1  6
  4  5  1  0
  4  6  2  0
  4  7  1  0
  7  8  1  0
  8  9  1  0
  9 10  1  0
 10 11  1  0
 11 12  1  0
 11 13  1  0
 10 14  1  0
 14 15  1  0
 14 16  1  0
  1 17  1  0
  1 18  1  0
  1 19  1  0
  2 20  1  0
  2 21  1  0
  5 22  1  0
  5 23  1  0
  5 24  1  0
  8 25  1  0
  8 26  1  0
  9 27  1  0
  9 28  1  0
 10 29  1  6
 11 30  1  1
 12 31  1  0
 12 32  1  0
 12 33  1  0
 13 34  1  0
 13 35  1  0
 13 36  1  0
 14 37  1  6
 15 38  1  0
 15 39  1  0
 15 40  1  0
 16 41  1  0
 16 42  1  0
 16 43  1  0
M  CHG  1  10   1
M  END
$$$$
