VX
     RDKit          3D

 43 42  0  0  0  0  0  0  0  0999 V2000
    3.1162   -1.8250   -1.5447 C   0  0  0  0  0  0  0  0  0  0  0  0
    3.7007   -0.5415   -0.9899 C   0  0  0  0  0  0  0  0  0  0  0  0
    2.9883   -0.1984    0.1899 O   0  0  0  0  0  0  0  0  0  0  0  0
    2.8446    1.3643    0.5788 P   0  0  1  0  0  0  0  0  0  0  0  0
    4.0409    2.1392    1.6451 C   0  0  0  0  0  0  0  0  0  0  0  0
    1.6911    2.1649    0.0340 O   0  0  0  0  0  0  0  0  0  0  0  0
    1.5477    0.7766    2.4609 S   0  0  0  0  0  0  0  0  0  0  0  0
   -0.1501    0.9719    1.8499 C   0  0  0  0  0  0  0  0  0  0  0  0
   -0.4384    0.0175    0.6807 C   0  0  0  0  0  0  0  0  0  0  0  0
   -1.6920    0.4379   -0.0965 N   0  0  2  0  0  0  0  0  0  0  0  0
   -2.4677   -0.7263   -0.7358 C   0  0  1  0  0  0  0  0  0  0  0  0
   -1.5574   -1.7997   -1.3310 C   0  0  0  0  0  0  0  0  0  0  0  0
   -3.4035   -1.3200    0.3184 C   0  0  0  0  0  0  0  0  0  0  0  0
   -1.4453    1.6585   -1.0104 C   0  0  2  0  0  0  0  0  0  0  0  0
   -2.7647    2.3977   -1.2373 C   0  0  0  0  0  0  0  0  0  0  0  0
   -0.7667    1.2887   -2.3223 C   0  0  0  0  0  0  0  0  0  0  0  0
    3.6632   -2.1490   -2.4348 H   0  0  0  0  0  0  0  0  0  0  0  0
    2.0620   -1.6815   -1.8095 H   0  0  0  0  0  0  0  0  0  0  0  0
    3.1539   -2.6237   -0.7951 H   0  0  0  0  0  0  0  0  0  0  0  0
    3.6251    0.2598   -1.7334 H   0  0  0  0  0  0  0  0  0  0  0  0
    4.7556   -0.6833   -0.7313 H   0  0  0  0  0  0  0  0  0  0  0  0
    4.4495    1.4194    2.3610 H   0  0  0  0  0  0  0  0  0  0  0  0
    3.5802    2.9568    2.2081 H   0  0  0  0  0  0  0  0  0  0  0  0
    4.8704    2.5545    1.0659 H   0  0  0  0  0  0  0  0  0  0  0  0
   -0.8417    0.7645    2.6732 H   0  0  0  0  0  0  0  0  0  0  0  0
   -0.2852    2.0213    1.5787 H   0  0  0  0  0  0  0  0  0  0  0  0
   -0.6292   -0.9773    1.0969 H   0  0  0  0  0  0  0  0  0  0  0  0
    0.3704   -0.0589   -0.0483 H   0  0  0  0  0  0  0  0  0  0  0  0
   -2.3272    0.8035    0.6234 H   0  0  0  0  0  0  0  0  0  0  0  0
   -3.0866   -0.2990   -1.5304 H   0  0  0  0  0  0  0  0  0  0  0  0
   -0.7867   -1.3853   -1.9834 H   0  0  0  0  0  0  0  0  0  0  0  0
   -2.1522   -2.4967   -1.9317 H   0  0  0  0  0  0  0  0  0  0  0  0
   -1.0606   -2.3956   -0.5593 H   0  0  0  0  0  0  0  0  0  0  0  0
   -2.8495   -1.7504    1.1588 H   0  0  0  0  0  0  0  0  0  0  0  0
   -4.0195   -2.1139   -0.1182 H   0  0  0  0  0  0  0  0  0  0  0  0
   -4.0817   -0.5565    0.7151 H   0  0  0  0  0  0  0  0  0  0  0  0
   -0.7910    2.3330   -0.4525 H   0  0  0  0  0  0  0  0  0  0  0  0
   -3.4676    1.8213   -1.8465 H   0  0  0  0  0  0  0  0  0  0  0  0
   -3.2519    2.6374   -0.2865 H   0  0  0  0  0  0  0  0  0  0  0  0
   -2.5818    3.3431   -1.7612 H   0  0  0  0  0  0  0  0  0  0  0  0
   -1.4091    0.6735   -2.9602 H   0  0  0  0  0  0  0  0  0  0  0  0
    0.1760    0.7582   -2.1579 H   0  0  0  0  0  0  0  0  0  0  0  0
   -0.5300    2.1967   -2.8900 H   0  0  0  0  0  0  0  0  0  0  0  0
  1  2  1  0
  2  3  1  0
  4  3  1  6
  4  5  1  0
  4  6  2  0
  4  7  1  0
  7  8  1  0
  8  9  1  0
  9 10  1  0
 10 11  1  0
 11 12  1  0
 11 13  1  0
 10 14  1  0
 14 15  1  0
 14 16  1  0
  1 17  1  0
  1 18  1  0
  1 19  1  0
  2 20  1  0
  2 21  1  0
  5 22  1  0
  5 23  1  0
  5 24  1  0
  8 25  1  0
  8 26  1  0
  9 27  1  0
  9 28  1  0
 10 29  1  1
 11 30  1  1
 12 31  1  0
 12 32  1  0
 12 33  1  0
 13 34  1  0
 13 35  1  0
 13 36  1  0
 14 37  1  1
 15 38  1  0
 15 39  1  0
 15 40  1  0
 16 41  1  0
 16 42  1  0
 16 43  1  0
M  CHG  1  10   1
M  END
$$$$
