VX
     RDKit          3D

 43 42  0  0  0  0  0  0  0  0999 V2000
    3.6594   -2.0234   -1.1860 C   0  0  0  0  0  0  0  0  0  0  0  0
    3.4900   -0.5211   -1.0938 C   0  0  0  0  0  0  0  0  0  0  0  0
    3.0082   -0.1987    0.2035 O   0  0  0  0  0  0  0  0  0  0  0  0
    2.8301    1.3666    0.5695 P   0  0  1  0  0  0  0  0  0  0  0  0
    4.0389    2.1232    1.6388 C   0  0  0  0  0  0  0  0  0  0  0  0
    1.6877    2.1790    0.0360 O   0  0  0  0  0  0  0  0  0  0  0  0
    1.5332    0.7789    2.4516 S   0  0  0  0  0  0  0  0  0  0  0  0
   -0.0937    0.4702    1.6854 C   0  0  0  0  0  0  0  0  0  0  0  0
   -1.1266    0.0410    2.7328 C   0  0  0  0  0  0  0  0  0  0  0  0
   -0.5762   -1.0700    3.6500 N   0  0  2  0  0  0  0  0  0  0  0  0
   -0.5643   -2.4357    2.9573 C   0  0  2  0  0  0  0  0  0  0  0  0
   -1.8479   -3.2262    3.1435 C   0  0  0  0  0  0  0  0  0  0  0  0
    0.6798   -3.2351    3.3372 C   0  0  0  0  0  0  0  0  0  0  0  0
   -1.0460   -0.8888    5.0954 C   0  0  1  0  0  0  0  0  0  0  0  0
   -2.5609   -0.9691    5.2603 C   0  0  0  0  0  0  0  0  0  0  0  0
   -0.3097   -1.8083    6.0588 C   0  0  0  0  0  0  0  0  0  0  0  0
    4.0232   -2.3153   -2.1750 H   0  0  0  0  0  0  0  0  0  0  0  0
    2.7085   -2.5315   -0.9948 H   0  0  0  0  0  0  0  0  0  0  0  0
    4.3675   -2.3784   -0.4299 H   0  0  0  0  0  0  0  0  0  0  0  0
    4.4484   -0.0231   -1.2673 H   0  0  0  0  0  0  0  0  0  0  0  0
    2.7689   -0.1777   -1.8420 H   0  0  0  0  0  0  0  0  0  0  0  0
    4.4415    1.3930    2.3463 H   0  0  0  0  0  0  0  0  0  0  0  0
    4.8703    2.5356    1.0609 H   0  0  0  0  0  0  0  0  0  0  0  0
    3.5860    2.9397    2.2086 H   0  0  0  0  0  0  0  0  0  0  0  0
   -0.4373    1.3827    1.1885 H   0  0  0  0  0  0  0  0  0  0  0  0
    0.0290   -0.2979    0.9165 H   0  0  0  0  0  0  0  0  0  0  0  0
   -1.3723    0.9008    3.3665 H   0  0  0  0  0  0  0  0  0  0  0  0
   -2.0482   -0.3286    2.2721 H   0  0  0  0  0  0  0  0  0  0  0  0
    0.4226   -0.8073    3.7075 H   0  0  0  0  0  0  0  0  0  0  0  0
   -0.4690   -2.2207    1.8875 H   0  0  0  0  0  0  0  0  0  0  0  0
   -1.8534   -4.0904    2.4692 H   0  0  0  0  0  0  0  0  0  0  0  0
   -1.9443   -3.6228    4.1575 H   0  0  0  0  0  0  0  0  0  0  0  0
   -2.7309   -2.6266    2.9039 H   0  0  0  0  0  0  0  0  0  0  0  0
    0.7924   -4.0901    2.6607 H   0  0  0  0  0  0  0  0  0  0  0  0
    1.5883   -2.6304    3.2502 H   0  0  0  0  0  0  0  0  0  0  0  0
    0.6302   -3.6414    4.3491 H   0  0  0  0  0  0  0  0  0  0  0  0
   -0.7403    0.1350    5.3487 H   0  0  0  0  0  0  0  0  0  0  0  0
   -2.9370   -1.9935    5.2285 H   0  0  0  0  0  0  0  0  0  0  0  0
   -3.0962   -0.3808    4.5099 H   0  0  0  0  0  0  0  0  0  0  0  0
   -2.8432   -0.5693    6.2414 H   0  0  0  0  0  0  0  0  0  0  0  0
   -0.6399   -2.8467    5.9712 H   0  0  0  0  0  0  0  0  0  0  0  0
    0.7733   -1.7627    5.9060 H   0  0  0  0  0  0  0  0  0  0  0  0
   -0.5050   -1.5010    7.0925 H   0  0  0  0  0  0  0  0  0  0  0  0
  1  2  1  0
  2  3  1  0
  4  3  1  6
  4  5  1  0
  4  6  2  0
  4  7  1  0
  7  8  1  0
  8  9  1  0
  9 10  1  0
 10 11  1  0
 11 12  1  0
 11 13  1  0
 10 14  1  0
 14 15  1  0
 14 16  1  0
  1 17  1  0
  1 18  1  0
  1 19  1  0
  2 20  1  0
  2 21  1  0
  5 22  1  0
  5 23  1  0
  5 24  1  0
  8 25  1  0
  8 26  1  0
  9 27  1  0
  9 28  1  0
 10 29  1  1
 11 30  1  6
 12 31  1  0
 12 32  1  0
 12 33  1  0
 13 34  1  0
 13 35  1  0
 13 36  1  0
 14 37  1  6
 15 38  1  0
 15 39  1  0
 15 40  1  0
 16 41  1  0
 16 42  1  0
 16 43  1  0
M  CHG  1  10   1
M  END
$$$$
