VX
     RDKit          3D

 43 42  0  0  0  0  0  0  0  0999 V2000
    3.7241   -2.0214   -1.1559 C   0  0  0  0  0  0  0  0  0  0  0  0
    3.5001   -0.5247   -1.0886 C   0  0  0  0  0  0  0  0  0  0  0  0
    3.0070   -0.1986    0.2027 O   0  0  0  0  0  0  0  0  0  0  0  0
    2.8315    1.3660    0.5703 P   0  0  1  0  0  0  0  0  0  0  0  0
    4.0396    2.1242    1.6395 C   0  0  0  0  0  0  0  0  0  0  0  0
    1.6869    2.1785    0.0353 O   0  0  0  0  0  0  0  0  0  0  0  0
    1.5346    0.7783    2.4524 S   0  0  0  0  0  0  0  0  0  0  0  0
   -0.0625    0.3862    1.6841 C   0  0  0  0  0  0  0  0  0  0  0  0
   -1.0998    0.0289    2.7468 C   0  0  0  0  0  0  0  0  0  0  0  0
   -2.5408   -0.0032    2.2089 N   0  0  2  0  0  0  0  0  0  0  0  0
   -3.6330   -0.1079    3.3119 C   0  0  2  0  0  0  0  0  0  0  0  0
   -4.8921    0.6155    2.8177 C   0  0  0  0  0  0  0  0  0  0  0  0
   -3.2085    0.5031    4.6469 C   0  0  0  0  0  0  0  0  0  0  0  0
   -2.8287   -1.0276    1.0860 C   0  0  1  0  0  0  0  0  0  0  0  0
   -2.5248   -0.4295   -0.2837 C   0  0  0  0  0  0  0  0  0  0  0  0
   -2.1483   -2.3701    1.3311 C   0  0  0  0  0  0  0  0  0  0  0  0
    2.7915   -2.5600   -0.9572 H   0  0  0  0  0  0  0  0  0  0  0  0
    4.0991   -2.3164   -2.1399 H   0  0  0  0  0  0  0  0  0  0  0  0
    4.4437   -2.3376   -0.3933 H   0  0  0  0  0  0  0  0  0  0  0  0
    2.7656   -0.2202   -1.8408 H   0  0  0  0  0  0  0  0  0  0  0  0
    4.4393    0.0046   -1.2740 H   0  0  0  0  0  0  0  0  0  0  0  0
    4.4529    1.3908    2.3379 H   0  0  0  0  0  0  0  0  0  0  0  0
    3.5839    2.9311    2.2201 H   0  0  0  0  0  0  0  0  0  0  0  0
    4.8642    2.5496    1.0616 H   0  0  0  0  0  0  0  0  0  0  0  0
   -0.3921    1.2586    1.1120 H   0  0  0  0  0  0  0  0  0  0  0  0
    0.1097   -0.4424    0.9954 H   0  0  0  0  0  0  0  0  0  0  0  0
   -1.0793    0.8204    3.5005 H   0  0  0  0  0  0  0  0  0  0  0  0
   -0.9015   -0.9333    3.2295 H   0  0  0  0  0  0  0  0  0  0  0  0
   -2.6796    0.9298    1.7962 H   0  0  0  0  0  0  0  0  0  0  0  0
   -3.8323   -1.1754    3.4584 H   0  0  0  0  0  0  0  0  0  0  0  0
   -4.6959    1.6801    2.6470 H   0  0  0  0  0  0  0  0  0  0  0  0
   -5.6922    0.5401    3.5627 H   0  0  0  0  0  0  0  0  0  0  0  0
   -5.2817    0.1951    1.8868 H   0  0  0  0  0  0  0  0  0  0  0  0
   -4.0358    0.4578    5.3645 H   0  0  0  0  0  0  0  0  0  0  0  0
   -2.9254    1.5561    4.5419 H   0  0  0  0  0  0  0  0  0  0  0  0
   -2.3777   -0.0493    5.0981 H   0  0  0  0  0  0  0  0  0  0  0  0
   -3.9082   -1.2078    1.1056 H   0  0  0  0  0  0  0  0  0  0  0  0
   -3.0004    0.5497   -0.4019 H   0  0  0  0  0  0  0  0  0  0  0  0
   -2.9200   -1.0821   -1.0702 H   0  0  0  0  0  0  0  0  0  0  0  0
   -1.4572   -0.3175   -0.4771 H   0  0  0  0  0  0  0  0  0  0  0  0
   -1.0624   -2.3204    1.2210 H   0  0  0  0  0  0  0  0  0  0  0  0
   -2.5083   -3.1083    0.6053 H   0  0  0  0  0  0  0  0  0  0  0  0
   -2.3761   -2.7569    2.3295 H   0  0  0  0  0  0  0  0  0  0  0  0
  1  2  1  0
  2  3  1  0
  4  3  1  6
  4  5  1  0
  4  6  2  0
  4  7  1  0
  7  8  1  0
  8  9  1  0
  9 10  1  0
 10 11  1  0
 11 12  1  0
 11 13  1  0
 10 14  1  0
 14 15  1  0
 14 16  1  0
  1 17  1  0
  1 18  1  0
  1 19  1  0
  2 20  1  0
  2 21  1  0
  5 22  1  0
  5 23  1  0
  5 24  1  0
  8 25  1  0
  8 26  1  0
  9 27  1  0
  9 28  1  0
 10 29  1  6
 11 30  1  1
 12 31  1  0
 12 32  1  0
 12 33  1  0
 13 34  1  0
 13 35  1  0
 13 36  1  0
 14 37  1  1
 15 38  1  0
 15 39  1  0
 15 40  1  0
 16 41  1  0
 16 42  1  0
 16 43  1  0
M  CHG  1  10   1
M  END
$$$$
