VX
     RDKit          3D

 43 42  0  0  0  0  0  0  0  0999 V2000
    3.6129   -2.0448   -1.1751 C   0  0  0  0  0  0  0  0  0  0  0  0
    3.5584   -0.5330   -1.0623 C   0  0  0  0  0  0  0  0  0  0  0  0
    3.0036   -0.1982    0.2005 O   0  0  0  0  0  0  0  0  0  0  0  0
    2.8338    1.3654    0.5717 P   0  0  1  0  0  0  0  0  0  0  0  0
    4.0404    2.1270    1.6409 C   0  0  0  0  0  0  0  0  0  0  0  0
    1.6872    2.1760    0.0347 O   0  0  0  0  0  0  0  0  0  0  0  0
    1.5369    0.7777    2.4538 S   0  0  0  0  0  0  0  0  0  0  0  0
    0.0217    0.0896    1.7197 C   0  0  0  0  0  0  0  0  0  0  0  0
   -0.9112    1.2049    1.2435 C   0  0  0  0  0  0  0  0  0  0  0  0
   -2.1252    0.7583    0.4220 N   0  0  2  0  0  0  0  0  0  0  0  0
   -3.1065   -0.2559    1.0168 C   0  0  1  0  0  0  0  0  0  0  0  0
   -2.6527   -1.7015    0.8694 C   0  0  0  0  0  0  0  0  0  0  0  0
   -3.4489    0.1030    2.4612 C   0  0  0  0  0  0  0  0  0  0  0  0
   -1.9261    0.6345   -1.1005 C   0  0  1  0  0  0  0  0  0  0  0  0
   -1.9117    2.0315   -1.7253 C   0  0  0  0  0  0  0  0  0  0  0  0
   -0.6860   -0.1572   -1.4909 C   0  0  0  0  0  0  0  0  0  0  0  0
    4.0394   -2.3475   -2.1361 H   0  0  0  0  0  0  0  0  0  0  0  0
    4.2227   -2.4714   -0.3667 H   0  0  0  0  0  0  0  0  0  0  0  0
    2.6085   -2.4776   -1.0791 H   0  0  0  0  0  0  0  0  0  0  0  0
    4.5670   -0.1132   -1.1475 H   0  0  0  0  0  0  0  0  0  0  0  0
    2.9286   -0.1183   -1.8580 H   0  0  0  0  0  0  0  0  0  0  0  0
    4.4626    1.3944    2.3350 H   0  0  0  0  0  0  0  0  0  0  0  0
    3.5758    2.9271    2.2253 H   0  0  0  0  0  0  0  0  0  0  0  0
    4.8579    2.5631    1.0609 H   0  0  0  0  0  0  0  0  0  0  0  0
    0.3150   -0.5905    0.9204 H   0  0  0  0  0  0  0  0  0  0  0  0
   -0.4588   -0.5000    2.5033 H   0  0  0  0  0  0  0  0  0  0  0  0
   -0.4020    1.9536    0.6378 H   0  0  0  0  0  0  0  0  0  0  0  0
   -1.3215    1.7408    2.1074 H   0  0  0  0  0  0  0  0  0  0  0  0
   -2.6968    1.6127    0.4743 H   0  0  0  0  0  0  0  0  0  0  0  0
   -4.0247   -0.1288    0.4288 H   0  0  0  0  0  0  0  0  0  0  0  0
   -1.7016   -1.9056    1.3614 H   0  0  0  0  0  0  0  0  0  0  0  0
   -3.3944   -2.3739    1.3151 H   0  0  0  0  0  0  0  0  0  0  0  0
   -2.5639   -1.9875   -0.1824 H   0  0  0  0  0  0  0  0  0  0  0  0
   -4.2870   -0.5078    2.8129 H   0  0  0  0  0  0  0  0  0  0  0  0
   -2.6128   -0.0725    3.1433 H   0  0  0  0  0  0  0  0  0  0  0  0
   -3.7513    1.1521    2.5478 H   0  0  0  0  0  0  0  0  0  0  0  0
   -2.8160    0.1171   -1.4794 H   0  0  0  0  0  0  0  0  0  0  0  0
   -1.0565    2.6253   -1.3904 H   0  0  0  0  0  0  0  0  0  0  0  0
   -2.8265    2.5830   -1.4801 H   0  0  0  0  0  0  0  0  0  0  0  0
   -1.8571    1.9593   -2.8169 H   0  0  0  0  0  0  0  0  0  0  0  0
   -0.6704   -1.1545   -1.0448 H   0  0  0  0  0  0  0  0  0  0  0  0
    0.2377    0.3617   -1.2206 H   0  0  0  0  0  0  0  0  0  0  0  0
   -0.6622   -0.2957   -2.5785 H   0  0  0  0  0  0  0  0  0  0  0  0
  1  2  1  0
  2  3  1  0
  4  3  1  6
  4  5  1  0
  4  6  2  0
  4  7  1  0
  7  8  1  0
  8  9  1  0
  9 10  1  0
 10 11  1  0
 11 12  1  0
 11 13  1  0
 10 14  1  0
 14 15  1  0
 14 16  1  0
  1 17  1  0
  1 18  1  0
  1 19  1  0
  2 20  1  0
  2 21  1  0
  5 22  1  0
  5 23  1  0
  5 24  1  0
  8 25  1  0
  8 26  1  0
  9 27  1  0
  9 28  1  0
 10 29  1  6
 11 30  1  1
 12 31  1  0
 12 32  1  0
 12 33  1  0
 13 34  1  0
 13 35  1  0
 13 36  1  0
 14 37  1  1
 15 38  1  0
 15 39  1  0
 15 40  1  0
 16 41  1  0
 16 42  1  0
 16 43  1  0
M  CHG  1  10   1
M  END
$$$$
