VX
     RDKit          3D

 43 42  0  0  0  0  0  0  0  0999 V2000
    3.6719   -2.0215   -1.1826 C   0  0  0  0  0  0  0  0  0  0  0  0
    3.4810   -0.5212   -1.0974 C   0  0  0  0  0  0  0  0  0  0  0  0
    3.0061   -0.1989    0.2020 O   0  0  0  0  0  0  0  0  0  0  0  0
    2.8316    1.3666    0.5706 P   0  0  1  0  0  0  0  0  0  0  0  0
    4.0388    2.1250    1.6392 C   0  0  0  0  0  0  0  0  0  0  0  0
    1.6884    2.1775    0.0360 O   0  0  0  0  0  0  0  0  0  0  0  0
    1.5347    0.7789    2.4527 S   0  0  0  0  0  0  0  0  0  0  0  0
   -0.1349    0.6736    1.7231 C   0  0  0  0  0  0  0  0  0  0  0  0
   -1.1116    0.0140    2.6950 C   0  0  0  0  0  0  0  0  0  0  0  0
   -0.5865   -1.3341    3.2152 N   0  0  2  0  0  0  0  0  0  0  0  0
   -0.6547   -2.5414    2.2631 C   0  0  1  0  0  0  0  0  0  0  0  0
   -1.8248   -2.4736    1.2875 C   0  0  0  0  0  0  0  0  0  0  0  0
    0.6786   -2.7094    1.5378 C   0  0  0  0  0  0  0  0  0  0  0  0
   -1.0590   -1.6051    4.6511 C   0  0  2  0  0  0  0  0  0  0  0  0
   -0.1176   -2.5922    5.3394 C   0  0  0  0  0  0  0  0  0  0  0  0
   -2.5136   -2.0548    4.6865 C   0  0  0  0  0  0  0  0  0  0  0  0
    2.7267   -2.5427   -0.9950 H   0  0  0  0  0  0  0  0  0  0  0  0
    4.0440   -2.3119   -2.1692 H   0  0  0  0  0  0  0  0  0  0  0  0
    4.3813   -2.3640   -0.4213 H   0  0  0  0  0  0  0  0  0  0  0  0
    2.7479   -0.1927   -1.8408 H   0  0  0  0  0  0  0  0  0  0  0  0
    4.4304   -0.0102   -1.2825 H   0  0  0  0  0  0  0  0  0  0  0  0
    4.4404    1.3965    2.3496 H   0  0  0  0  0  0  0  0  0  0  0  0
    3.5879    2.9433    2.2073 H   0  0  0  0  0  0  0  0  0  0  0  0
    4.8717    2.5347    1.0615 H   0  0  0  0  0  0  0  0  0  0  0  0
   -0.4776    1.6855    1.4853 H   0  0  0  0  0  0  0  0  0  0  0  0
   -0.0822    0.1172    0.7844 H   0  0  0  0  0  0  0  0  0  0  0  0
   -2.1021   -0.1354    2.2583 H   0  0  0  0  0  0  0  0  0  0  0  0
   -1.2378    0.6709    3.5640 H   0  0  0  0  0  0  0  0  0  0  0  0
    0.4206   -1.1346    3.3362 H   0  0  0  0  0  0  0  0  0  0  0  0
   -0.7917   -3.4287    2.8863 H   0  0  0  0  0  0  0  0  0  0  0  0
   -2.7790   -2.3419    1.8055 H   0  0  0  0  0  0  0  0  0  0  0  0
   -1.8919   -3.4083    0.7196 H   0  0  0  0  0  0  0  0  0  0  0  0
   -1.7089   -1.6673    0.5572 H   0  0  0  0  0  0  0  0  0  0  0  0
    0.8629   -1.9106    0.8159 H   0  0  0  0  0  0  0  0  0  0  0  0
    1.5138   -2.7389    2.2450 H   0  0  0  0  0  0  0  0  0  0  0  0
    0.6873   -3.6534    0.9815 H   0  0  0  0  0  0  0  0  0  0  0  0
   -0.9639   -0.6510    5.1837 H   0  0  0  0  0  0  0  0  0  0  0  0
    0.9246   -2.2660    5.2560 H   0  0  0  0  0  0  0  0  0  0  0  0
   -0.3581   -2.6581    6.4065 H   0  0  0  0  0  0  0  0  0  0  0  0
   -0.1912   -3.6030    4.9294 H   0  0  0  0  0  0  0  0  0  0  0  0
   -2.8554   -2.1386    5.7241 H   0  0  0  0  0  0  0  0  0  0  0  0
   -3.1681   -1.3360    4.1839 H   0  0  0  0  0  0  0  0  0  0  0  0
   -2.6554   -3.0343    4.2200 H   0  0  0  0  0  0  0  0  0  0  0  0
  1  2  1  0
  2  3  1  0
  4  3  1  6
  4  5  1  0
  4  6  2  0
  4  7  1  0
  7  8  1  0
  8  9  1  0
  9 10  1  0
 10 11  1  0
 11 12  1  0
 11 13  1  0
 10 14  1  0
 14 15  1  0
 14 16  1  0
  1 17  1  0
  1 18  1  0
  1 19  1  0
  2 20  1  0
  2 21  1  0
  5 22  1  0
  5 23  1  0
  5 24  1  0
  8 25  1  0
  8 26  1  0
  9 27  1  0
  9 28  1  0
 10 29  1  1
 11 30  1  6
 12 31  1  0
 12 32  1  0
 12 33  1  0
 13 34  1  0
 13 35  1  0
 13 36  1  0
 14 37  1  1
 15 38  1  0
 15 39  1  0
 15 40  1  0
 16 41  1  0
 16 42  1  0
 16 43  1  0
M  CHG  1  10   1
M  END
$$$$
