VX
     RDKit          3D

 43 42  0  0  0  0  0  0  0  0999 V2000
    3.6826   -2.0408   -1.1536 C   0  0  0  0  0  0  0  0  0  0  0  0
    3.5841   -0.5314   -1.0560 C   0  0  0  0  0  0  0  0  0  0  0  0
    2.9953   -0.1994    0.1944 O   0  0  0  0  0  0  0  0  0  0  0  0
    2.8398    1.3655    0.5759 P   0  0  1  0  0  0  0  0  0  0  0  0
    4.0397    2.1338    1.6426 C   0  0  0  0  0  0  0  0  0  0  0  0
    1.6901    2.1701    0.0349 O   0  0  0  0  0  0  0  0  0  0  0  0
    1.5429    0.7779    2.4580 S   0  0  0  0  0  0  0  0  0  0  0  0
   -0.1640    0.8626    1.8336 C   0  0  0  0  0  0  0  0  0  0  0  0
   -0.3715   -0.1033    0.6631 C   0  0  0  0  0  0  0  0  0  0  0  0
   -1.8308   -0.2543    0.2035 N   0  0  1  0  0  0  0  0  0  0  0  0
   -2.8048   -0.7325    1.3066 C   0  0  1  0  0  0  0  0  0  0  0  0
   -4.1743   -1.0718    0.7093 C   0  0  0  0  0  0  0  0  0  0  0  0
   -2.2521   -1.9834    1.9955 C   0  0  0  0  0  0  0  0  0  0  0  0
   -2.3684    0.8643   -0.7132 C   0  0  1  0  0  0  0  0  0  0  0  0
   -2.6994    2.1521    0.0318 C   0  0  0  0  0  0  0  0  0  0  0  0
   -1.4340    1.1153   -1.8979 C   0  0  0  0  0  0  0  0  0  0  0  0
    2.6968   -2.5022   -1.0337 H   0  0  0  0  0  0  0  0  0  0  0  0
    4.1008   -2.3452   -2.1172 H   0  0  0  0  0  0  0  0  0  0  0  0
    4.3180   -2.4361   -0.3544 H   0  0  0  0  0  0  0  0  0  0  0  0
    4.5813   -0.0861   -1.1277 H   0  0  0  0  0  0  0  0  0  0  0  0
    2.9577   -0.1421   -1.8670 H   0  0  0  0  0  0  0  0  0  0  0  0
    3.5708    2.9241    2.2362 H   0  0  0  0  0  0  0  0  0  0  0  0
    4.4732    1.3988    2.3256 H   0  0  0  0  0  0  0  0  0  0  0  0
    4.8559    2.5847    1.0683 H   0  0  0  0  0  0  0  0  0  0  0  0
   -0.3479    1.8958    1.5413 H   0  0  0  0  0  0  0  0  0  0  0  0
   -0.8219    0.6299    2.6738 H   0  0  0  0  0  0  0  0  0  0  0  0
   -0.0413   -1.1131    0.9312 H   0  0  0  0  0  0  0  0  0  0  0  0
    0.2157    0.1691   -0.2136 H   0  0  0  0  0  0  0  0  0  0  0  0
   -1.7816   -1.0583   -0.4383 H   0  0  0  0  0  0  0  0  0  0  0  0
   -2.9061    0.0800    2.0314 H   0  0  0  0  0  0  0  0  0  0  0  0
   -4.0847   -1.8001   -0.1034 H   0  0  0  0  0  0  0  0  0  0  0  0
   -4.6921   -0.1865    0.3339 H   0  0  0  0  0  0  0  0  0  0  0  0
   -4.8286   -1.5045    1.4735 H   0  0  0  0  0  0  0  0  0  0  0  0
   -1.3589   -1.7642    2.5872 H   0  0  0  0  0  0  0  0  0  0  0  0
   -2.0015   -2.7641    1.2690 H   0  0  0  0  0  0  0  0  0  0  0  0
   -2.9889   -2.4005    2.6919 H   0  0  0  0  0  0  0  0  0  0  0  0
   -3.2918    0.4601   -1.1437 H   0  0  0  0  0  0  0  0  0  0  0  0
   -3.2908    1.9760    0.9345 H   0  0  0  0  0  0  0  0  0  0  0  0
   -1.8048    2.7173    0.3032 H   0  0  0  0  0  0  0  0  0  0  0  0
   -3.2926    2.8109   -0.6154 H   0  0  0  0  0  0  0  0  0  0  0  0
   -1.9410    1.7252   -2.6547 H   0  0  0  0  0  0  0  0  0  0  0  0
   -1.1365    0.1766   -2.3778 H   0  0  0  0  0  0  0  0  0  0  0  0
   -0.5319    1.6611   -1.6045 H   0  0  0  0  0  0  0  0  0  0  0  0
  1  2  1  0
  2  3  1  0
  4  3  1  6
  4  5  1  0
  4  6  2  0
  4  7  1  0
  7  8  1  0
  8  9  1  0
  9 10  1  0
 10 11  1  0
 11 12  1  0
 11 13  1  0
 10 14  1  0
 14 15  1  0
 14 16  1  0
  1 17  1  0
  1 18  1  0
  1 19  1  0
  2 20  1  0
  2 21  1  0
  5 22  1  0
  5 23  1  0
  5 24  1  0
  8 25  1  0
  8 26  1  0
  9 27  1  0
  9 28  1  0
 10 29  1  1
 11 30  1  6
 12 31  1  0
 12 32  1  0
 12 33  1  0
 13 34  1  0
 13 35  1  0
 13 36  1  0
 14 37  1  1
 15 38  1  0
 15 39  1  0
 15 40  1  0
 16 41  1  0
 16 42  1  0
 16 43  1  0
M  CHG  1  10   1
M  END
$$$$
