VX
     RDKit          3D

 43 42  0  0  0  0  0  0  0  0999 V2000
    4.8370   -1.7078    0.4176 C   0  0  0  0  0  0  0  0  0  0  0  0
    3.6265   -1.0993    1.0949 C   0  0  0  0  0  0  0  0  0  0  0  0
    3.0004   -0.1974    0.1985 O   0  0  0  0  0  0  0  0  0  0  0  0
    2.8355    1.3648    0.5726 P   0  0  1  0  0  0  0  0  0  0  0  0
    4.0411    2.1295    1.6422 C   0  0  0  0  0  0  0  0  0  0  0  0
    1.6880    2.1733    0.0344 O   0  0  0  0  0  0  0  0  0  0  0  0
    1.5386    0.7771    2.4547 S   0  0  0  0  0  0  0  0  0  0  0  0
   -0.1270    0.7021    1.7296 C   0  0  0  0  0  0  0  0  0  0  0  0
   -1.1575    0.3138    2.7879 C   0  0  0  0  0  0  0  0  0  0  0  0
   -2.6236    0.3947    2.3170 N   0  0  2  0  0  0  0  0  0  0  0  0
   -2.8934   -0.3791    1.0179 C   0  0  1  0  0  0  0  0  0  0  0  0
   -4.1790   -1.2000    1.1305 C   0  0  0  0  0  0  0  0  0  0  0  0
   -2.8765    0.4813   -0.2353 C   0  0  0  0  0  0  0  0  0  0  0  0
   -3.2923    1.7386    2.6409 C   0  0  2  0  0  0  0  0  0  0  0  0
   -4.8046    1.6811    2.4644 C   0  0  0  0  0  0  0  0  0  0  0  0
   -2.6741    2.9385    1.9369 C   0  0  0  0  0  0  0  0  0  0  0  0
    5.3289   -2.4307    1.0742 H   0  0  0  0  0  0  0  0  0  0  0  0
    4.5473   -2.2129   -0.5098 H   0  0  0  0  0  0  0  0  0  0  0  0
    5.5587   -0.9311    0.1447 H   0  0  0  0  0  0  0  0  0  0  0  0
    3.9183   -0.6024    2.0245 H   0  0  0  0  0  0  0  0  0  0  0  0
    2.9035   -1.8815    1.3457 H   0  0  0  0  0  0  0  0  0  0  0  0
    4.8905    2.4941    1.0579 H   0  0  0  0  0  0  0  0  0  0  0  0
    4.4161    1.4333    2.3967 H   0  0  0  0  0  0  0  0  0  0  0  0
    3.5959    2.9818    2.1636 H   0  0  0  0  0  0  0  0  0  0  0  0
   -0.0977   -0.0333    0.9208 H   0  0  0  0  0  0  0  0  0  0  0  0
   -0.3465    1.6756    1.2919 H   0  0  0  0  0  0  0  0  0  0  0  0
   -1.0830    0.9385    3.6852 H   0  0  0  0  0  0  0  0  0  0  0  0
   -1.0091   -0.7287    3.0965 H   0  0  0  0  0  0  0  0  0  0  0  0
   -3.0723   -0.2071    3.0203 H   0  0  0  0  0  0  0  0  0  0  0  0
   -2.0818   -1.1128    0.9445 H   0  0  0  0  0  0  0  0  0  0  0  0
   -4.2378   -1.9140    0.3008 H   0  0  0  0  0  0  0  0  0  0  0  0
   -5.0797   -0.5851    1.0796 H   0  0  0  0  0  0  0  0  0  0  0  0
   -4.2056   -1.7794    2.0593 H   0  0  0  0  0  0  0  0  0  0  0  0
   -1.9511    1.0533   -0.3321 H   0  0  0  0  0  0  0  0  0  0  0  0
   -2.9472   -0.1570   -1.1238 H   0  0  0  0  0  0  0  0  0  0  0  0
   -3.7226    1.1712   -0.2790 H   0  0  0  0  0  0  0  0  0  0  0  0
   -3.1188    1.8709    3.7172 H   0  0  0  0  0  0  0  0  0  0  0  0
   -5.2338    0.8180    2.9831 H   0  0  0  0  0  0  0  0  0  0  0  0
   -5.2667    2.5761    2.8969 H   0  0  0  0  0  0  0  0  0  0  0  0
   -5.1010    1.6509    1.4133 H   0  0  0  0  0  0  0  0  0  0  0  0
   -1.6400    3.0985    2.2527 H   0  0  0  0  0  0  0  0  0  0  0  0
   -2.7031    2.8665    0.8496 H   0  0  0  0  0  0  0  0  0  0  0  0
   -3.2179    3.8510    2.2086 H   0  0  0  0  0  0  0  0  0  0  0  0
  1  2  1  0
  2  3  1  0
  4  3  1  6
  4  5  1  0
  4  6  2  0
  4  7  1  0
  7  8  1  0
  8  9  1  0
  9 10  1  0
 10 11  1  0
 11 12  1  0
 11 13  1  0
 10 14  1  0
 14 15  1  0
 14 16  1  0
  1 17  1  0
  1 18  1  0
  1 19  1  0
  2 20  1  0
  2 21  1  0
  5 22  1  0
  5 23  1  0
  5 24  1  0
  8 25  1  0
  8 26  1  0
  9 27  1  0
  9 28  1  0
 10 29  1  1
 11 30  1  1
 12 31  1  0
 12 32  1  0
 12 33  1  0
 13 34  1  0
 13 35  1  0
 13 36  1  0
 14 37  1  1
 15 38  1  0
 15 39  1  0
 15 40  1  0
 16 41  1  0
 16 42  1  0
 16 43  1  0
M  CHG  1  10   1
M  END
$$$$
