VX
     RDKit          3D

 43 42  0  0  0  0  0  0  0  0999 V2000
    4.8371   -1.6990    0.3429 C   0  0  0  0  0  0  0  0  0  0  0  0
    3.6409   -1.1066    1.0583 C   0  0  0  0  0  0  0  0  0  0  0  0
    2.9854   -0.1974    0.1882 O   0  0  0  0  0  0  0  0  0  0  0  0
    2.8455    1.3641    0.5794 P   0  0  1  0  0  0  0  0  0  0  0  0
    4.0412    2.1414    1.6460 C   0  0  0  0  0  0  0  0  0  0  0  0
    1.6928    2.1620    0.0342 O   0  0  0  0  0  0  0  0  0  0  0  0
    1.5486    0.7764    2.4614 S   0  0  0  0  0  0  0  0  0  0  0  0
   -0.1613    1.0121    1.8782 C   0  0  0  0  0  0  0  0  0  0  0  0
   -0.4698    0.1477    0.6489 C   0  0  0  0  0  0  0  0  0  0  0  0
   -1.9658    0.0884    0.2940 N   0  0  1  0  0  0  0  0  0  0  0  0
   -2.6255    1.4410   -0.0738 C   0  0  2  0  0  0  0  0  0  0  0  0
   -1.7251    2.3273   -0.9258 C   0  0  0  0  0  0  0  0  0  0  0  0
   -3.1610    2.1330    1.1756 C   0  0  0  0  0  0  0  0  0  0  0  0
   -2.3146   -0.9754   -0.7870 C   0  0  1  0  0  0  0  0  0  0  0  0
   -1.3814   -2.1861   -0.7665 C   0  0  0  0  0  0  0  0  0  0  0  0
   -3.7497   -1.4610   -0.5457 C   0  0  0  0  0  0  0  0  0  0  0  0
    5.3500   -2.4269    0.9777 H   0  0  0  0  0  0  0  0  0  0  0  0
    5.5471   -0.9148    0.0612 H   0  0  0  0  0  0  0  0  0  0  0  0
    4.5267   -2.1945   -0.5829 H   0  0  0  0  0  0  0  0  0  0  0  0
    3.9520   -0.6192    1.9867 H   0  0  0  0  0  0  0  0  0  0  0  0
    2.9288   -1.8963    1.3170 H   0  0  0  0  0  0  0  0  0  0  0  0
    3.5904    2.9964    2.1582 H   0  0  0  0  0  0  0  0  0  0  0  0
    4.4158    1.4540    2.4088 H   0  0  0  0  0  0  0  0  0  0  0  0
    4.8923    2.5050    1.0633 H   0  0  0  0  0  0  0  0  0  0  0  0
   -0.8304    0.7517    2.7043 H   0  0  0  0  0  0  0  0  0  0  0  0
   -0.2794    2.0751    1.6653 H   0  0  0  0  0  0  0  0  0  0  0  0
   -0.1816   -0.8755    0.9042 H   0  0  0  0  0  0  0  0  0  0  0  0
    0.0622    0.4490   -0.2554 H   0  0  0  0  0  0  0  0  0  0  0  0
   -2.4285   -0.2445    1.1500 H   0  0  0  0  0  0  0  0  0  0  0  0
   -3.5007    1.1984   -0.6841 H   0  0  0  0  0  0  0  0  0  0  0  0
   -1.3279    1.7845   -1.7893 H   0  0  0  0  0  0  0  0  0  0  0  0
   -0.8874    2.7424   -0.3614 H   0  0  0  0  0  0  0  0  0  0  0  0
   -2.2980    3.1784   -1.3110 H   0  0  0  0  0  0  0  0  0  0  0  0
   -2.3739    2.5253    1.8208 H   0  0  0  0  0  0  0  0  0  0  0  0
   -3.7894    2.9841    0.8895 H   0  0  0  0  0  0  0  0  0  0  0  0
   -3.7825    1.4529    1.7677 H   0  0  0  0  0  0  0  0  0  0  0  0
   -2.2313   -0.4780   -1.7597 H   0  0  0  0  0  0  0  0  0  0  0  0
   -1.7153   -2.9354   -1.4936 H   0  0  0  0  0  0  0  0  0  0  0  0
   -1.3636   -2.6693    0.2162 H   0  0  0  0  0  0  0  0  0  0  0  0
   -0.3599   -1.9145   -1.0514 H   0  0  0  0  0  0  0  0  0  0  0  0
   -3.8466   -1.9354    0.4373 H   0  0  0  0  0  0  0  0  0  0  0  0
   -4.0345   -2.2008   -1.3020 H   0  0  0  0  0  0  0  0  0  0  0  0
   -4.4838   -0.6530   -0.5987 H   0  0  0  0  0  0  0  0  0  0  0  0
  1  2  1  0
  2  3  1  0
  4  3  1  6
  4  5  1  0
  4  6  2  0
  4  7  1  0
  7  8  1  0
  8  9  1  0
  9 10  1  0
 10 11  1  0
 11 12  1  0
 11 13  1  0
 10 14  1  0
 14 15  1  0
 14 16  1  0
  1 17  1  0
  1 18  1  0
  1 19  1  0
  2 20  1  0
  2 21  1  0
  5 22  1  0
  5 23  1  0
  5 24  1  0
  8 25  1  0
  8 26  1  0
  9 27  1  0
  9 28  1  0
 10 29  1  6
 11 30  1  6
 12 31  1  0
 12 32  1  0
 12 33  1  0
 13 34  1  0
 13 35  1  0
 13 36  1  0
 14 37  1  1
 15 38  1  0
 15 39  1  0
 15 40  1  0
 16 41  1  0
 16 42  1  0
 16 43  1  0
M  CHG  1  10   1
M  END
$$$$
