VX
     RDKit          3D

 43 42  0  0  0  0  0  0  0  0999 V2000
    2.3839   -0.8784   -2.0139 C   0  0  0  0  0  0  0  0  0  0  0  0
    3.5238   -0.5390   -1.0762 C   0  0  0  0  0  0  0  0  0  0  0  0
    3.0063   -0.1973    0.2026 O   0  0  0  0  0  0  0  0  0  0  0  0
    2.8323    1.3655    0.5707 P   0  0  1  0  0  0  0  0  0  0  0  0
    4.0396    2.1242    1.6395 C   0  0  0  0  0  0  0  0  0  0  0  0
    1.6869    2.1777    0.0350 O   0  0  0  0  0  0  0  0  0  0  0  0
    1.5354    0.7778    2.4528 S   0  0  0  0  0  0  0  0  0  0  0  0
    0.0837   -0.0263    1.7107 C   0  0  0  0  0  0  0  0  0  0  0  0
   -1.2527    0.5483    2.2180 C   0  0  0  0  0  0  0  0  0  0  0  0
   -1.9758    1.4151    1.1562 N   0  0  2  0  0  0  0  0  0  0  0  0
   -1.2498    2.7747    1.0022 C   0  0  1  0  0  0  0  0  0  0  0  0
   -1.2321    3.2212   -0.4581 C   0  0  0  0  0  0  0  0  0  0  0  0
   -1.7603    3.8331    1.9745 C   0  0  0  0  0  0  0  0  0  0  0  0
   -3.5112    1.4649    1.3602 C   0  0  2  0  0  0  0  0  0  0  0  0
   -4.1000    0.0465    1.4115 C   0  0  0  0  0  0  0  0  0  0  0  0
   -4.1956    2.1959    0.2050 C   0  0  0  0  0  0  0  0  0  0  0  0
    1.7435   -1.6593   -1.5877 H   0  0  0  0  0  0  0  0  0  0  0  0
    2.7660   -1.2194   -2.9799 H   0  0  0  0  0  0  0  0  0  0  0  0
    1.7507   -0.0018   -2.1886 H   0  0  0  0  0  0  0  0  0  0  0  0
    4.1284    0.2783   -1.4840 H   0  0  0  0  0  0  0  0  0  0  0  0
    4.1799   -1.4064   -0.9506 H   0  0  0  0  0  0  0  0  0  0  0  0
    4.4211    1.3937    2.3582 H   0  0  0  0  0  0  0  0  0  0  0  0
    3.5927    2.9542    2.1936 H   0  0  0  0  0  0  0  0  0  0  0  0
    4.8871    2.5175    1.0688 H   0  0  0  0  0  0  0  0  0  0  0  0
    0.1513   -1.0835    1.9944 H   0  0  0  0  0  0  0  0  0  0  0  0
    0.1513    0.0142    0.6205 H   0  0  0  0  0  0  0  0  0  0  0  0
   -1.8894   -0.3096    2.4234 H   0  0  0  0  0  0  0  0  0  0  0  0
   -1.1780    1.1407    3.1349 H   0  0  0  0  0  0  0  0  0  0  0  0
   -1.8432    0.9269    0.2625 H   0  0  0  0  0  0  0  0  0  0  0  0
   -0.2142    2.5901    1.2701 H   0  0  0  0  0  0  0  0  0  0  0  0
   -0.9155    2.4064   -1.1183 H   0  0  0  0  0  0  0  0  0  0  0  0
   -0.5212    4.0446   -0.5896 H   0  0  0  0  0  0  0  0  0  0  0  0
   -2.1946    3.5900   -0.8111 H   0  0  0  0  0  0  0  0  0  0  0  0
   -2.7758    4.1651    1.7516 H   0  0  0  0  0  0  0  0  0  0  0  0
   -1.7348    3.4714    3.0071 H   0  0  0  0  0  0  0  0  0  0  0  0
   -1.1193    4.7200    1.9250 H   0  0  0  0  0  0  0  0  0  0  0  0
   -3.6957    1.9748    2.3122 H   0  0  0  0  0  0  0  0  0  0  0  0
   -3.8981   -0.4428    2.3693 H   0  0  0  0  0  0  0  0  0  0  0  0
   -3.7134   -0.5838    0.6037 H   0  0  0  0  0  0  0  0  0  0  0  0
   -5.1907    0.0705    1.3208 H   0  0  0  0  0  0  0  0  0  0  0  0
   -3.9057    1.7788   -0.7667 H   0  0  0  0  0  0  0  0  0  0  0  0
   -5.2853    2.1089    0.2884 H   0  0  0  0  0  0  0  0  0  0  0  0
   -3.9900    3.2655    0.2089 H   0  0  0  0  0  0  0  0  0  0  0  0
  1  2  1  0
  2  3  1  0
  4  3  1  6
  4  5  1  0
  4  6  2  0
  4  7  1  0
  7  8  1  0
  8  9  1  0
  9 10  1  0
 10 11  1  0
 11 12  1  0
 11 13  1  0
 10 14  1  0
 14 15  1  0
 14 16  1  0
  1 17  1  0
  1 18  1  0
  1 19  1  0
  2 20  1  0
  2 21  1  0
  5 22  1  0
  5 23  1  0
  5 24  1  0
  8 25  1  0
  8 26  1  0
  9 27  1  0
  9 28  1  0
 10 29  1  6
 11 30  1  6
 12 31  1  0
 12 32  1  0
 12 33  1  0
 13 34  1  0
 13 35  1  0
 13 36  1  0
 14 37  1  1
 15 38  1  0
 15 39  1  0
 15 40  1  0
 16 41  1  0
 16 42  1  0
 16 43  1  0
M  CHG  1  10   1
M  END
$$$$
