VX
     RDKit          3D

 43 42  0  0  0  0  0  0  0  0999 V2000
    2.3432   -2.3450   -0.5419 C   0  0  0  0  0  0  0  0  0  0  0  0
    2.0257   -0.8645   -0.5172 C   0  0  0  0  0  0  0  0  0  0  0  0
    3.0333   -0.1951    0.2219 O   0  0  0  0  0  0  0  0  0  0  0  0
    2.8156    1.3661    0.5594 P   0  0  1  0  0  0  0  0  0  0  0  0
    4.0383    2.1012    1.6314 C   0  0  0  0  0  0  0  0  0  0  0  0
    1.6777    2.1979    0.0351 O   0  0  0  0  0  0  0  0  0  0  0  0
    1.5187    0.7784    2.4415 S   0  0  0  0  0  0  0  0  0  0  0  0
    0.4701    2.2292    2.7489 C   0  0  0  0  0  0  0  0  0  0  0  0
   -0.7162    2.2743    1.7800 C   0  0  0  0  0  0  0  0  0  0  0  0
   -1.7077    3.4192    2.0773 N   0  0  2  0  0  0  0  0  0  0  0  0
   -1.1527    4.8460    1.8868 C   0  0  1  0  0  0  0  0  0  0  0  0
   -0.3080    4.9437    0.6130 C   0  0  0  0  0  0  0  0  0  0  0  0
   -2.3028    5.8479    1.7607 C   0  0  0  0  0  0  0  0  0  0  0  0
   -2.5248    3.1185    3.3531 C   0  0  1  0  0  0  0  0  0  0  0  0
   -2.0644    3.9099    4.5727 C   0  0  0  0  0  0  0  0  0  0  0  0
   -4.0162    3.2851    3.0682 C   0  0  0  0  0  0  0  0  0  0  0  0
    1.5878   -2.8969   -1.1081 H   0  0  0  0  0  0  0  0  0  0  0  0
    2.3859   -2.7470    0.4757 H   0  0  0  0  0  0  0  0  0  0  0  0
    3.3240   -2.5218   -0.9955 H   0  0  0  0  0  0  0  0  0  0  0  0
    1.0509   -0.6954   -0.0489 H   0  0  0  0  0  0  0  0  0  0  0  0
    2.0040   -0.4663   -1.5363 H   0  0  0  0  0  0  0  0  0  0  0  0
    4.4297    1.3633    2.3373 H   0  0  0  0  0  0  0  0  0  0  0  0
    3.6031    2.9270    2.2011 H   0  0  0  0  0  0  0  0  0  0  0  0
    4.8741    2.4918    1.0441 H   0  0  0  0  0  0  0  0  0  0  0  0
    1.0829    3.1321    2.6832 H   0  0  0  0  0  0  0  0  0  0  0  0
    0.1192    2.1381    3.7793 H   0  0  0  0  0  0  0  0  0  0  0  0
   -0.4214    2.3840    0.7355 H   0  0  0  0  0  0  0  0  0  0  0  0
   -1.3045    1.3494    1.8324 H   0  0  0  0  0  0  0  0  0  0  0  0
   -2.3788    3.3190    1.3032 H   0  0  0  0  0  0  0  0  0  0  0  0
   -0.5269    5.0754    2.7546 H   0  0  0  0  0  0  0  0  0  0  0  0
   -0.8471    4.5620   -0.2608 H   0  0  0  0  0  0  0  0  0  0  0  0
   -0.0356    5.9852    0.4078 H   0  0  0  0  0  0  0  0  0  0  0  0
    0.6336    4.3995    0.7120 H   0  0  0  0  0  0  0  0  0  0  0  0
   -1.9198    6.8443    1.5120 H   0  0  0  0  0  0  0  0  0  0  0  0
   -2.8615    5.9635    2.6903 H   0  0  0  0  0  0  0  0  0  0  0  0
   -3.0038    5.5562    0.9710 H   0  0  0  0  0  0  0  0  0  0  0  0
   -2.3691    2.0551    3.5709 H   0  0  0  0  0  0  0  0  0  0  0  0
   -0.9871    3.8257    4.7363 H   0  0  0  0  0  0  0  0  0  0  0  0
   -2.3166    4.9708    4.5100 H   0  0  0  0  0  0  0  0  0  0  0  0
   -2.5584    3.5235    5.4716 H   0  0  0  0  0  0  0  0  0  0  0  0
   -4.3220    2.6765    2.2105 H   0  0  0  0  0  0  0  0  0  0  0  0
   -4.2964    4.3205    2.8656 H   0  0  0  0  0  0  0  0  0  0  0  0
   -4.6038    2.9527    3.9312 H   0  0  0  0  0  0  0  0  0  0  0  0
  1  2  1  0
  2  3  1  0
  4  3  1  6
  4  5  1  0
  4  6  2  0
  4  7  1  0
  7  8  1  0
  8  9  1  0
  9 10  1  0
 10 11  1  0
 11 12  1  0
 11 13  1  0
 10 14  1  0
 14 15  1  0
 14 16  1  0
  1 17  1  0
  1 18  1  0
  1 19  1  0
  2 20  1  0
  2 21  1  0
  5 22  1  0
  5 23  1  0
  5 24  1  0
  8 25  1  0
  8 26  1  0
  9 27  1  0
  9 28  1  0
 10 29  1  6
 11 30  1  6
 12 31  1  0
 12 32  1  0
 12 33  1  0
 13 34  1  0
 13 35  1  0
 13 36  1  0
 14 37  1  6
 15 38  1  0
 15 39  1  0
 15 40  1  0
 16 41  1  0
 16 42  1  0
 16 43  1  0
M  CHG  1  10   1
M  END
$$$$
