VX
     RDKit          3D

 43 42  0  0  0  0  0  0  0  0999 V2000
    3.5719   -2.0431   -1.1919 C   0  0  0  0  0  0  0  0  0  0  0  0
    3.5518   -0.5342   -1.0626 C   0  0  0  0  0  0  0  0  0  0  0  0
    3.0061   -0.1952    0.2031 O   0  0  0  0  0  0  0  0  0  0  0  0
    2.8325    1.3648    0.5706 P   0  0  1  0  0  0  0  0  0  0  0  0
    4.0393    2.1235    1.6391 C   0  0  0  0  0  0  0  0  0  0  0  0
    1.6870    2.1770    0.0349 O   0  0  0  0  0  0  0  0  0  0  0  0
    1.5356    0.7772    2.4527 S   0  0  0  0  0  0  0  0  0  0  0  0
    0.6832    2.3121    2.9387 C   0  0  0  0  0  0  0  0  0  0  0  0
   -0.4351    2.7355    1.9683 C   0  0  0  0  0  0  0  0  0  0  0  0
   -1.2568    1.5353    1.4644 N   0  0  2  0  0  0  0  0  0  0  0  0
   -1.6698    1.7201   -0.0008 C   0  0  2  0  0  0  0  0  0  0  0  0
   -2.5685    2.9314   -0.2336 C   0  0  0  0  0  0  0  0  0  0  0  0
   -2.2515    0.4469   -0.5977 C   0  0  0  0  0  0  0  0  0  0  0  0
   -2.2223    1.0062    2.5269 C   0  0  1  0  0  0  0  0  0  0  0  0
   -3.5791    1.6895    2.5121 C   0  0  0  0  0  0  0  0  0  0  0  0
   -2.3326   -0.5157    2.4690 C   0  0  0  0  0  0  0  0  0  0  0  0
    2.5607   -2.4521   -1.0957 H   0  0  0  0  0  0  0  0  0  0  0  0
    4.1736   -2.4905   -0.3937 H   0  0  0  0  0  0  0  0  0  0  0  0
    3.9851   -2.3467   -2.1578 H   0  0  0  0  0  0  0  0  0  0  0  0
    2.9352   -0.0974   -1.8542 H   0  0  0  0  0  0  0  0  0  0  0  0
    4.5678   -0.1373   -1.1425 H   0  0  0  0  0  0  0  0  0  0  0  0
    4.4629    1.3881    2.3290 H   0  0  0  0  0  0  0  0  0  0  0  0
    3.5794    2.9216    2.2289 H   0  0  0  0  0  0  0  0  0  0  0  0
    4.8563    2.5616    1.0599 H   0  0  0  0  0  0  0  0  0  0  0  0
    0.2637    2.1471    3.9360 H   0  0  0  0  0  0  0  0  0  0  0  0
    1.4176    3.1183    3.0329 H   0  0  0  0  0  0  0  0  0  0  0  0
   -1.1282    3.4367    2.4456 H   0  0  0  0  0  0  0  0  0  0  0  0
   -0.0036    3.2390    1.0996 H   0  0  0  0  0  0  0  0  0  0  0  0
   -0.5331    0.8012    1.3965 H   0  0  0  0  0  0  0  0  0  0  0  0
   -0.7266    1.9046   -0.5279 H   0  0  0  0  0  0  0  0  0  0  0  0
   -2.6083    3.1555   -1.3062 H   0  0  0  0  0  0  0  0  0  0  0  0
   -3.5998    2.7610    0.0810 H   0  0  0  0  0  0  0  0  0  0  0  0
   -2.1984    3.8306    0.2662 H   0  0  0  0  0  0  0  0  0  0  0  0
   -2.3222    0.5432   -1.6873 H   0  0  0  0  0  0  0  0  0  0  0  0
   -3.2625    0.2464   -0.2338 H   0  0  0  0  0  0  0  0  0  0  0  0
   -1.6155   -0.4194   -0.3896 H   0  0  0  0  0  0  0  0  0  0  0  0
   -1.7520    1.2377    3.4889 H   0  0  0  0  0  0  0  0  0  0  0  0
   -3.4850    2.7794    2.5083 H   0  0  0  0  0  0  0  0  0  0  0  0
   -4.1878    1.3765    1.6597 H   0  0  0  0  0  0  0  0  0  0  0  0
   -4.1417    1.4182    3.4129 H   0  0  0  0  0  0  0  0  0  0  0  0
   -2.9375   -0.8656    1.6304 H   0  0  0  0  0  0  0  0  0  0  0  0
   -2.8170   -0.8867    3.3798 H   0  0  0  0  0  0  0  0  0  0  0  0
   -1.3483   -0.9903    2.4086 H   0  0  0  0  0  0  0  0  0  0  0  0
  1  2  1  0
  2  3  1  0
  4  3  1  6
  4  5  1  0
  4  6  2  0
  4  7  1  0
  7  8  1  0
  8  9  1  0
  9 10  1  0
 10 11  1  0
 11 12  1  0
 11 13  1  0
 10 14  1  0
 14 15  1  0
 14 16  1  0
  1 17  1  0
  1 18  1  0
  1 19  1  0
  2 20  1  0
  2 21  1  0
  5 22  1  0
  5 23  1  0
  5 24  1  0
  8 25  1  0
  8 26  1  0
  9 27  1  0
  9 28  1  0
 10 29  1  6
 11 30  1  6
 12 31  1  0
 12 32  1  0
 12 33  1  0
 13 34  1  0
 13 35  1  0
 13 36  1  0
 14 37  1  6
 15 38  1  0
 15 39  1  0
 15 40  1  0
 16 41  1  0
 16 42  1  0
 16 43  1  0
M  CHG  1  10   1
M  END
$$$$
