VX
     RDKit          3D

 43 42  0  0  0  0  0  0  0  0999 V2000
    3.5820   -2.0376   -1.1991 C   0  0  0  0  0  0  0  0  0  0  0  0
    3.5969   -0.5301   -1.0470 C   0  0  0  0  0  0  0  0  0  0  0  0
    2.9993   -0.1975    0.1977 O   0  0  0  0  0  0  0  0  0  0  0  0
    2.8368    1.3652    0.5737 P   0  0  1  0  0  0  0  0  0  0  0  0
    4.0397    2.1300    1.6414 C   0  0  0  0  0  0  0  0  0  0  0  0
    1.6891    2.1725    0.0349 O   0  0  0  0  0  0  0  0  0  0  0  0
    1.5399    0.7775    2.4558 S   0  0  0  0  0  0  0  0  0  0  0  0
    0.3251   -0.4128    1.8155 C   0  0  0  0  0  0  0  0  0  0  0  0
   -0.5742    0.0801    0.6708 C   0  0  0  0  0  0  0  0  0  0  0  0
   -1.8161    0.8873    1.0943 N   0  0  2  0  0  0  0  0  0  0  0  0
   -1.4432    2.3376    1.4803 C   0  0  1  0  0  0  0  0  0  0  0  0
   -2.2980    3.3214    0.6812 C   0  0  0  0  0  0  0  0  0  0  0  0
   -1.5003    2.6053    2.9803 C   0  0  0  0  0  0  0  0  0  0  0  0
   -2.8371    0.1431    1.9770 C   0  0  1  0  0  0  0  0  0  0  0  0
   -4.2015    0.8335    1.9052 C   0  0  0  0  0  0  0  0  0  0  0  0
   -3.0249   -1.3034    1.5038 C   0  0  0  0  0  0  0  0  0  0  0  0
    2.5548   -2.4177   -1.1690 H   0  0  0  0  0  0  0  0  0  0  0  0
    4.1216   -2.5138   -0.3732 H   0  0  0  0  0  0  0  0  0  0  0  0
    4.0427   -2.3397   -2.1436 H   0  0  0  0  0  0  0  0  0  0  0  0
    3.0310   -0.0635   -1.8593 H   0  0  0  0  0  0  0  0  0  0  0  0
    4.6265   -0.1613   -1.0705 H   0  0  0  0  0  0  0  0  0  0  0  0
    4.4592    1.4005    2.3402 H   0  0  0  0  0  0  0  0  0  0  0  0
    4.8599    2.5639    1.0632 H   0  0  0  0  0  0  0  0  0  0  0  0
    3.5769    2.9337    2.2219 H   0  0  0  0  0  0  0  0  0  0  0  0
   -0.2681   -0.7734    2.6601 H   0  0  0  0  0  0  0  0  0  0  0  0
    0.9027   -1.2687    1.4496 H   0  0  0  0  0  0  0  0  0  0  0  0
   -0.9584   -0.7832    0.1176 H   0  0  0  0  0  0  0  0  0  0  0  0
   -0.0451    0.6748   -0.0762 H   0  0  0  0  0  0  0  0  0  0  0  0
   -2.3048    0.9932    0.1954 H   0  0  0  0  0  0  0  0  0  0  0  0
   -0.4162    2.4927    1.1435 H   0  0  0  0  0  0  0  0  0  0  0  0
   -1.9696    4.3490    0.8748 H   0  0  0  0  0  0  0  0  0  0  0  0
   -3.3582    3.2651    0.9359 H   0  0  0  0  0  0  0  0  0  0  0  0
   -2.1978    3.1428   -0.3952 H   0  0  0  0  0  0  0  0  0  0  0  0
   -1.0130    3.5617    3.2026 H   0  0  0  0  0  0  0  0  0  0  0  0
   -0.9862    1.8369    3.5619 H   0  0  0  0  0  0  0  0  0  0  0  0
   -2.5226    2.6840    3.3566 H   0  0  0  0  0  0  0  0  0  0  0  0
   -2.4528    0.1410    3.0011 H   0  0  0  0  0  0  0  0  0  0  0  0
   -4.1997    1.8173    2.3759 H   0  0  0  0  0  0  0  0  0  0  0  0
   -4.5383    0.9492    0.8690 H   0  0  0  0  0  0  0  0  0  0  0  0
   -4.9589    0.2441    2.4353 H   0  0  0  0  0  0  0  0  0  0  0  0
   -3.2940   -1.3478    0.4428 H   0  0  0  0  0  0  0  0  0  0  0  0
   -3.8259   -1.7919    2.0702 H   0  0  0  0  0  0  0  0  0  0  0  0
   -2.1275   -1.9085    1.6617 H   0  0  0  0  0  0  0  0  0  0  0  0
  1  2  1  0
  2  3  1  0
  4  3  1  6
  4  5  1  0
  4  6  2  0
  4  7  1  0
  7  8  1  0
  8  9  1  0
  9 10  1  0
 10 11  1  0
 11 12  1  0
 11 13  1  0
 10 14  1  0
 14 15  1  0
 14 16  1  0
  1 17  1  0
  1 18  1  0
  1 19  1  0
  2 20  1  0
  2 21  1  0
  5 22  1  0
  5 23  1  0
  5 24  1  0
  8 25  1  0
  8 26  1  0
  9 27  1  0
  9 28  1  0
 10 29  1  6
 11 30  1  1
 12 31  1  0
 12 32  1  0
 12 33  1  0
 13 34  1  0
 13 35  1  0
 13 36  1  0
 14 37  1  6
 15 38  1  0
 15 39  1  0
 15 40  1  0
 16 41  1  0
 16 42  1  0
 16 43  1  0
M  CHG  1  10   1
M  END
$$$$
