VX
     RDKit          3D

 43 42  0  0  0  0  0  0  0  0999 V2000
    3.5235   -2.0311   -1.2317 C   0  0  0  0  0  0  0  0  0  0  0  0
    3.5002   -0.5249   -1.0880 C   0  0  0  0  0  0  0  0  0  0  0  0
    3.0039   -0.1965    0.2012 O   0  0  0  0  0  0  0  0  0  0  0  0
    2.8344    1.3649    0.5720 P   0  0  1  0  0  0  0  0  0  0  0  0
    4.0396    2.1258    1.6400 C   0  0  0  0  0  0  0  0  0  0  0  0
    1.6871    2.1759    0.0346 O   0  0  0  0  0  0  0  0  0  0  0  0
    1.5375    0.7772    2.4541 S   0  0  0  0  0  0  0  0  0  0  0  0
    0.1734   -0.1680    1.7003 C   0  0  0  0  0  0  0  0  0  0  0  0
   -1.1938    0.3758    2.1316 C   0  0  0  0  0  0  0  0  0  0  0  0
   -1.3108    1.8923    1.9447 N   0  0  1  0  0  0  0  0  0  0  0  0
   -1.4327    2.3396    0.4793 C   0  0  1  0  0  0  0  0  0  0  0  0
   -2.8405    2.1537   -0.0720 C   0  0  0  0  0  0  0  0  0  0  0  0
   -0.9604    3.7875    0.3369 C   0  0  0  0  0  0  0  0  0  0  0  0
   -2.2407    2.5940    2.9439 C   0  0  2  0  0  0  0  0  0  0  0  0
   -1.4710    2.8444    4.2416 C   0  0  0  0  0  0  0  0  0  0  0  0
   -3.5259    1.8101    3.2057 C   0  0  0  0  0  0  0  0  0  0  0  0
    3.8809   -2.3203   -2.2242 H   0  0  0  0  0  0  0  0  0  0  0  0
    2.5228   -2.4497   -1.0818 H   0  0  0  0  0  0  0  0  0  0  0  0
    4.1734   -2.4825   -0.4772 H   0  0  0  0  0  0  0  0  0  0  0  0
    4.5084   -0.1185   -1.2099 H   0  0  0  0  0  0  0  0  0  0  0  0
    2.8473   -0.0899   -1.8496 H   0  0  0  0  0  0  0  0  0  0  0  0
    4.4229    1.4046    2.3665 H   0  0  0  0  0  0  0  0  0  0  0  0
    4.8849    2.5161    1.0649 H   0  0  0  0  0  0  0  0  0  0  0  0
    3.5921    2.9610    2.1891 H   0  0  0  0  0  0  0  0  0  0  0  0
    0.2705   -0.1460    0.6120 H   0  0  0  0  0  0  0  0  0  0  0  0
    0.2667   -1.2144    2.0065 H   0  0  0  0  0  0  0  0  0  0  0  0
   -2.0079   -0.1009    1.5782 H   0  0  0  0  0  0  0  0  0  0  0  0
   -1.3283    0.1665    3.1988 H   0  0  0  0  0  0  0  0  0  0  0  0
   -0.3640    2.2156    2.2002 H   0  0  0  0  0  0  0  0  0  0  0  0
   -0.7518    1.7019   -0.0890 H   0  0  0  0  0  0  0  0  0  0  0  0
   -3.5633    2.8174    0.4119 H   0  0  0  0  0  0  0  0  0  0  0  0
   -3.1848    1.1214    0.0310 H   0  0  0  0  0  0  0  0  0  0  0  0
   -2.8586    2.3919   -1.1412 H   0  0  0  0  0  0  0  0  0  0  0  0
   -0.8230    4.0346   -0.7207 H   0  0  0  0  0  0  0  0  0  0  0  0
   -0.0044    3.9548    0.8428 H   0  0  0  0  0  0  0  0  0  0  0  0
   -1.6842    4.5029    0.7390 H   0  0  0  0  0  0  0  0  0  0  0  0
   -2.4999    3.5664    2.5141 H   0  0  0  0  0  0  0  0  0  0  0  0
   -1.1639    1.9112    4.7221 H   0  0  0  0  0  0  0  0  0  0  0  0
   -2.0936    3.3965    4.9541 H   0  0  0  0  0  0  0  0  0  0  0  0
   -0.5722    3.4425    4.0558 H   0  0  0  0  0  0  0  0  0  0  0  0
   -4.0384    1.5260    2.2853 H   0  0  0  0  0  0  0  0  0  0  0  0
   -4.2215    2.4238    3.7876 H   0  0  0  0  0  0  0  0  0  0  0  0
   -3.3466    0.9025    3.7900 H   0  0  0  0  0  0  0  0  0  0  0  0
  1  2  1  0
  2  3  1  0
  4  3  1  6
  4  5  1  0
  4  6  2  0
  4  7  1  0
  7  8  1  0
  8  9  1  0
  9 10  1  0
 10 11  1  0
 11 12  1  0
 11 13  1  0
 10 14  1  0
 14 15  1  0
 14 16  1  0
  1 17  1  0
  1 18  1  0
  1 19  1  0
  2 20  1  0
  2 21  1  0
  5 22  1  0
  5 23  1  0
  5 24  1  0
  8 25  1  0
  8 26  1  0
  9 27  1  0
  9 28  1  0
 10 29  1  6
 11 30  1  1
 12 31  1  0
 12 32  1  0
 12 33  1  0
 13 34  1  0
 13 35  1  0
 13 36  1  0
 14 37  1  6
 15 38  1  0
 15 39  1  0
 15 40  1  0
 16 41  1  0
 16 42  1  0
 16 43  1  0
M  CHG  1  10   1
M  END
$$$$
