VX
     RDKit          3D

 43 42  0  0  0  0  0  0  0  0999 V2000
    2.4713   -0.9043   -2.0353 C   0  0  0  0  0  0  0  0  0  0  0  0
    3.5712   -0.5419   -1.0583 C   0  0  0  0  0  0  0  0  0  0  0  0
    2.9954   -0.1984    0.1947 O   0  0  0  0  0  0  0  0  0  0  0  0
    2.8387    1.3655    0.5752 P   0  0  1  0  0  0  0  0  0  0  0  0
    4.0397    2.1336    1.6425 C   0  0  0  0  0  0  0  0  0  0  0  0
    1.6911    2.1695    0.0353 O   0  0  0  0  0  0  0  0  0  0  0  0
    1.5419    0.7778    2.4573 S   0  0  0  0  0  0  0  0  0  0  0  0
    0.5403   -0.6188    1.8765 C   0  0  0  0  0  0  0  0  0  0  0  0
   -0.5013   -0.2370    0.8193 C   0  0  0  0  0  0  0  0  0  0  0  0
   -1.4651    0.8638    1.2705 N   0  0  1  0  0  0  0  0  0  0  0  0
   -2.1801    1.5912    0.1056 C   0  0  2  0  0  0  0  0  0  0  0  0
   -2.8452    0.6109   -0.8577 C   0  0  0  0  0  0  0  0  0  0  0  0
   -1.2206    2.5376   -0.6102 C   0  0  0  0  0  0  0  0  0  0  0  0
   -2.4478    0.5378    2.4156 C   0  0  1  0  0  0  0  0  0  0  0  0
   -2.8813   -0.9237    2.4579 C   0  0  0  0  0  0  0  0  0  0  0  0
   -1.8733    1.0116    3.7506 C   0  0  0  0  0  0  0  0  0  0  0  0
    1.8371   -1.6964   -1.6230 H   0  0  0  0  0  0  0  0  0  0  0  0
    1.8189   -0.0464   -2.2269 H   0  0  0  0  0  0  0  0  0  0  0  0
    2.8890   -1.2433   -2.9873 H   0  0  0  0  0  0  0  0  0  0  0  0
    4.1824    0.2795   -1.4479 H   0  0  0  0  0  0  0  0  0  0  0  0
    4.2287   -1.4025   -0.8979 H   0  0  0  0  0  0  0  0  0  0  0  0
    4.8572    2.5800    1.0677 H   0  0  0  0  0  0  0  0  0  0  0  0
    3.5730    2.9282    2.2320 H   0  0  0  0  0  0  0  0  0  0  0  0
    4.4677    1.4027    2.3311 H   0  0  0  0  0  0  0  0  0  0  0  0
    1.2090   -1.3765    1.4588 H   0  0  0  0  0  0  0  0  0  0  0  0
    0.0634   -1.0753    2.7476 H   0  0  0  0  0  0  0  0  0  0  0  0
    0.0066    0.1218   -0.0792 H   0  0  0  0  0  0  0  0  0  0  0  0
   -1.0984   -1.1074    0.5291 H   0  0  0  0  0  0  0  0  0  0  0  0
   -0.8323    1.5850    1.6512 H   0  0  0  0  0  0  0  0  0  0  0  0
   -2.9508    2.2206    0.5634 H   0  0  0  0  0  0  0  0  0  0  0  0
   -3.4236    1.1592   -1.6112 H   0  0  0  0  0  0  0  0  0  0  0  0
   -2.1145    0.0007   -1.3941 H   0  0  0  0  0  0  0  0  0  0  0  0
   -3.5451   -0.0540   -0.3423 H   0  0  0  0  0  0  0  0  0  0  0  0
   -0.7312    3.2076    0.1036 H   0  0  0  0  0  0  0  0  0  0  0  0
   -1.7777    3.1616   -1.3168 H   0  0  0  0  0  0  0  0  0  0  0  0
   -0.4576    2.0063   -1.1824 H   0  0  0  0  0  0  0  0  0  0  0  0
   -3.3457    1.1395    2.2357 H   0  0  0  0  0  0  0  0  0  0  0  0
   -3.3002   -1.2585    1.5061 H   0  0  0  0  0  0  0  0  0  0  0  0
   -3.6628   -1.0550    3.2160 H   0  0  0  0  0  0  0  0  0  0  0  0
   -2.0653   -1.5976    2.7323 H   0  0  0  0  0  0  0  0  0  0  0  0
   -1.0356    0.3987    4.0871 H   0  0  0  0  0  0  0  0  0  0  0  0
   -2.6416    0.9580    4.5319 H   0  0  0  0  0  0  0  0  0  0  0  0
   -1.5438    2.0537    3.6897 H   0  0  0  0  0  0  0  0  0  0  0  0
  1  2  1  0
  2  3  1  0
  4  3  1  6
  4  5  1  0
  4  6  2  0
  4  7  1  0
  7  8  1  0
  8  9  1  0
  9 10  1  0
 10 11  1  0
 11 12  1  0
 11 13  1  0
 10 14  1  0
 14 15  1  0
 14 16  1  0
  1 17  1  0
  1 18  1  0
  1 19  1  0
  2 20  1  0
  2 21  1  0
  5 22  1  0
  5 23  1  0
  5 24  1  0
  8 25  1  0
  8 26  1  0
  9 27  1  0
  9 28  1  0
 10 29  1  6
 11 30  1  1
 12 31  1  0
 12 32  1  0
 12 33  1  0
 13 34  1  0
 13 35  1  0
 13 36  1  0
 14 37  1  1
 15 38  1  0
 15 39  1  0
 15 40  1  0
 16 41  1  0
 16 42  1  0
 16 43  1  0
M  CHG  1  10   1
M  END
$$$$
