VX
     RDKit          3D

 43 42  0  0  0  0  0  0  0  0999 V2000
    4.8598   -1.6831    0.3987 C   0  0  0  0  0  0  0  0  0  0  0  0
    3.6452   -1.0952    1.0863 C   0  0  0  0  0  0  0  0  0  0  0  0
    3.0015   -0.1960    0.1997 O   0  0  0  0  0  0  0  0  0  0  0  0
    2.8345    1.3647    0.5720 P   0  0  1  0  0  0  0  0  0  0  0  0
    4.0406    2.1279    1.6414 C   0  0  0  0  0  0  0  0  0  0  0  0
    1.6883    2.1735    0.0347 O   0  0  0  0  0  0  0  0  0  0  0  0
    1.5376    0.7770    2.4541 S   0  0  0  0  0  0  0  0  0  0  0  0
    0.0997   -0.0275    1.6675 C   0  0  0  0  0  0  0  0  0  0  0  0
   -1.0908   -0.0833    2.6258 C   0  0  0  0  0  0  0  0  0  0  0  0
   -1.4520    1.2995    3.1812 N   0  0  1  0  0  0  0  0  0  0  0  0
   -2.2223    2.2629    2.2513 C   0  0  2  0  0  0  0  0  0  0  0  0
   -3.0978    1.5497    1.2273 C   0  0  0  0  0  0  0  0  0  0  0  0
   -1.2473    3.2303    1.5868 C   0  0  0  0  0  0  0  0  0  0  0  0
   -2.0317    1.2875    4.6039 C   0  0  1  0  0  0  0  0  0  0  0  0
   -3.2856    0.4262    4.6877 C   0  0  0  0  0  0  0  0  0  0  0  0
   -0.9652    0.8609    5.6124 C   0  0  0  0  0  0  0  0  0  0  0  0
    4.5717   -2.1864   -0.5302 H   0  0  0  0  0  0  0  0  0  0  0  0
    5.3649   -2.4035    1.0481 H   0  0  0  0  0  0  0  0  0  0  0  0
    5.5698   -0.8954    0.1267 H   0  0  0  0  0  0  0  0  0  0  0  0
    3.9343   -0.5998    2.0176 H   0  0  0  0  0  0  0  0  0  0  0  0
    2.9340   -1.8886    1.3360 H   0  0  0  0  0  0  0  0  0  0  0  0
    4.8868    2.4989    1.0563 H   0  0  0  0  0  0  0  0  0  0  0  0
    3.5941    2.9758    2.1690 H   0  0  0  0  0  0  0  0  0  0  0  0
    4.4204    1.4288    2.3907 H   0  0  0  0  0  0  0  0  0  0  0  0
   -0.1658    0.5116    0.7555 H   0  0  0  0  0  0  0  0  0  0  0  0
    0.3898   -1.0412    1.3739 H   0  0  0  0  0  0  0  0  0  0  0  0
   -0.8280   -0.7248    3.4716 H   0  0  0  0  0  0  0  0  0  0  0  0
   -1.9773   -0.5205    2.1598 H   0  0  0  0  0  0  0  0  0  0  0  0
   -0.5266    1.7413    3.3060 H   0  0  0  0  0  0  0  0  0  0  0  0
   -2.8777    2.8601    2.8956 H   0  0  0  0  0  0  0  0  0  0  0  0
   -3.7892    0.8475    1.7015 H   0  0  0  0  0  0  0  0  0  0  0  0
   -3.7052    2.2808    0.6819 H   0  0  0  0  0  0  0  0  0  0  0  0
   -2.5067    1.0094    0.4815 H   0  0  0  0  0  0  0  0  0  0  0  0
   -0.6102    3.7260    2.3266 H   0  0  0  0  0  0  0  0  0  0  0  0
   -1.7970    4.0122    1.0513 H   0  0  0  0  0  0  0  0  0  0  0  0
   -0.6080    2.7296    0.8578 H   0  0  0  0  0  0  0  0  0  0  0  0
   -2.2867    2.3283    4.8363 H   0  0  0  0  0  0  0  0  0  0  0  0
   -3.7012    0.4626    5.7008 H   0  0  0  0  0  0  0  0  0  0  0  0
   -4.0633    0.7841    4.0074 H   0  0  0  0  0  0  0  0  0  0  0  0
   -3.0822   -0.6239    4.4564 H   0  0  0  0  0  0  0  0  0  0  0  0
   -0.0532    1.4563    5.5006 H   0  0  0  0  0  0  0  0  0  0  0  0
   -0.6998   -0.1964    5.5252 H   0  0  0  0  0  0  0  0  0  0  0  0
   -1.3337    1.0148    6.6329 H   0  0  0  0  0  0  0  0  0  0  0  0
  1  2  1  0
  2  3  1  0
  4  3  1  6
  4  5  1  0
  4  6  2  0
  4  7  1  0
  7  8  1  0
  8  9  1  0
  9 10  1  0
 10 11  1  0
 11 12  1  0
 11 13  1  0
 10 14  1  0
 14 15  1  0
 14 16  1  0
  1 17  1  0
  1 18  1  0
  1 19  1  0
  2 20  1  0
  2 21  1  0
  5 22  1  0
  5 23  1  0
  5 24  1  0
  8 25  1  0
  8 26  1  0
  9 27  1  0
  9 28  1  0
 10 29  1  6
 11 30  1  1
 12 31  1  0
 12 32  1  0
 12 33  1  0
 13 34  1  0
 13 35  1  0
 13 36  1  0
 14 37  1  6
 15 38  1  0
 15 39  1  0
 15 40  1  0
 16 41  1  0
 16 42  1  0
 16 43  1  0
M  CHG  1  10   1
M  END
$$$$
