VX
     RDKit          3D

 43 42  0  0  0  0  0  0  0  0999 V2000
    4.5784   -0.4891   -1.6189 C   0  0  0  0  0  0  0  0  0  0  0  0
    3.1458   -0.6071   -1.1440 C   0  0  0  0  0  0  0  0  0  0  0  0
    3.0130   -0.1955    0.2078 O   0  0  0  0  0  0  0  0  0  0  0  0
    2.8282    1.3656    0.5679 P   0  0  1  0  0  0  0  0  0  0  0  0
    4.0384    2.1178    1.6367 C   0  0  0  0  0  0  0  0  0  0  0  0
    1.6853    2.1822    0.0354 O   0  0  0  0  0  0  0  0  0  0  0  0
    1.5313    0.7779    2.4500 S   0  0  0  0  0  0  0  0  0  0  0  0
    0.3752    2.1760    2.6372 C   0  0  0  0  0  0  0  0  0  0  0  0
   -0.8074    2.0892    1.6567 C   0  0  0  0  0  0  0  0  0  0  0  0
   -1.4080    0.6784    1.6079 N   0  0  1  0  0  0  0  0  0  0  0  0
   -2.1887    0.2898    2.8680 C   0  0  2  0  0  0  0  0  0  0  0  0
   -2.1609   -1.2281    3.0458 C   0  0  0  0  0  0  0  0  0  0  0  0
   -3.6079    0.8405    2.8688 C   0  0  0  0  0  0  0  0  0  0  0  0
   -2.0488    0.2958    0.2668 C   0  0  2  0  0  0  0  0  0  0  0  0
   -0.9559   -0.1870   -0.6870 C   0  0  0  0  0  0  0  0  0  0  0  0
   -2.8600    1.4337   -0.3498 C   0  0  0  0  0  0  0  0  0  0  0  0
    4.7000   -0.9616   -2.5978 H   0  0  0  0  0  0  0  0  0  0  0  0
    4.8707    0.5600   -1.7136 H   0  0  0  0  0  0  0  0  0  0  0  0
    5.2664   -0.9580   -0.9086 H   0  0  0  0  0  0  0  0  0  0  0  0
    2.8343   -1.6556   -1.1910 H   0  0  0  0  0  0  0  0  0  0  0  0
    2.4678   -0.0397   -1.7887 H   0  0  0  0  0  0  0  0  0  0  0  0
    4.4689    1.3764    2.3157 H   0  0  0  0  0  0  0  0  0  0  0  0
    4.8509    2.5722    1.0665 H   0  0  0  0  0  0  0  0  0  0  0  0
    3.5751    2.9042    2.2396 H   0  0  0  0  0  0  0  0  0  0  0  0
    0.0126    2.1717    3.6693 H   0  0  0  0  0  0  0  0  0  0  0  0
    0.9152    3.1172    2.4938 H   0  0  0  0  0  0  0  0  0  0  0  0
   -1.6052    2.7859    1.9316 H   0  0  0  0  0  0  0  0  0  0  0  0
   -0.4709    2.3355    0.6487 H   0  0  0  0  0  0  0  0  0  0  0  0
   -0.5618    0.0883    1.6655 H   0  0  0  0  0  0  0  0  0  0  0  0
   -1.6461    0.7252    3.7126 H   0  0  0  0  0  0  0  0  0  0  0  0
   -2.7357   -1.7500    2.2752 H   0  0  0  0  0  0  0  0  0  0  0  0
   -2.5940   -1.5015    4.0145 H   0  0  0  0  0  0  0  0  0  0  0  0
   -1.1351   -1.6107    3.0248 H   0  0  0  0  0  0  0  0  0  0  0  0
   -3.6202    1.9260    2.7354 H   0  0  0  0  0  0  0  0  0  0  0  0
   -4.0915    0.6275    3.8288 H   0  0  0  0  0  0  0  0  0  0  0  0
   -4.2280    0.3840    2.0913 H   0  0  0  0  0  0  0  0  0  0  0  0
   -2.7156   -0.5486    0.4623 H   0  0  0  0  0  0  0  0  0  0  0  0
   -0.3898   -1.0176   -0.2518 H   0  0  0  0  0  0  0  0  0  0  0  0
   -0.2514    0.6105   -0.9395 H   0  0  0  0  0  0  0  0  0  0  0  0
   -1.3985   -0.5450   -1.6228 H   0  0  0  0  0  0  0  0  0  0  0  0
   -3.5899    1.8520    0.3464 H   0  0  0  0  0  0  0  0  0  0  0  0
   -3.4159    1.0630   -1.2184 H   0  0  0  0  0  0  0  0  0  0  0  0
   -2.2259    2.2510   -0.7077 H   0  0  0  0  0  0  0  0  0  0  0  0
  1  2  1  0
  2  3  1  0
  4  3  1  6
  4  5  1  0
  4  6  2  0
  4  7  1  0
  7  8  1  0
  8  9  1  0
  9 10  1  0
 10 11  1  0
 11 12  1  0
 11 13  1  0
 10 14  1  0
 14 15  1  0
 14 16  1  0
  1 17  1  0
  1 18  1  0
  1 19  1  0
  2 20  1  0
  2 21  1  0
  5 22  1  0
  5 23  1  0
  5 24  1  0
  8 25  1  0
  8 26  1  0
  9 27  1  0
  9 28  1  0
 10 29  1  6
 11 30  1  1
 12 31  1  0
 12 32  1  0
 12 33  1  0
 13 34  1  0
 13 35  1  0
 13 36  1  0
 14 37  1  1
 15 38  1  0
 15 39  1  0
 15 40  1  0
 16 41  1  0
 16 42  1  0
 16 43  1  0
M  CHG  1  10   1
M  END
$$$$
