VX
     RDKit          3D

 43 42  0  0  0  0  0  0  0  0999 V2000
    4.7932   -0.5577   -1.4072 C   0  0  0  0  0  0  0  0  0  0  0  0
    3.3019   -0.5878   -1.1311 C   0  0  0  0  0  0  0  0  0  0  0  0
    3.0212   -0.2032    0.2110 O   0  0  0  0  0  0  0  0  0  0  0  0
    2.8215    1.3680    0.5640 P   0  0  1  0  0  0  0  0  0  0  0  0
    4.0405    2.1149    1.6372 C   0  0  0  0  0  0  0  0  0  0  0  0
    1.6818    2.1904    0.0355 O   0  0  0  0  0  0  0  0  0  0  0  0
    1.5246    0.7803    2.4461 S   0  0  0  0  0  0  0  0  0  0  0  0
    1.8136   -0.9870    2.6973 C   0  0  0  0  0  0  0  0  0  0  0  0
    0.8375   -1.8262    1.8630 C   0  0  0  0  0  0  0  0  0  0  0  0
    1.0199   -3.3321    2.1969 N   0  0  2  0  0  0  0  0  0  0  0  0
    1.2228   -4.1894    0.9307 C   0  0  2  0  0  0  0  0  0  0  0  0
    1.3865   -5.6686    1.2627 C   0  0  0  0  0  0  0  0  0  0  0  0
    2.5062   -3.7376    0.2147 C   0  0  0  0  0  0  0  0  0  0  0  0
   -0.0558   -3.7479    3.2216 C   0  0  1  0  0  0  0  0  0  0  0  0
   -1.3903   -4.0793    2.5609 C   0  0  0  0  0  0  0  0  0  0  0  0
    0.4546   -4.8308    4.1666 C   0  0  0  0  0  0  0  0  0  0  0  0
    5.0284   -1.1011   -2.3269 H   0  0  0  0  0  0  0  0  0  0  0  0
    5.1357    0.4744   -1.5361 H   0  0  0  0  0  0  0  0  0  0  0  0
    5.3599   -0.9956   -0.5777 H   0  0  0  0  0  0  0  0  0  0  0  0
    2.9380   -1.6161   -1.2494 H   0  0  0  0  0  0  0  0  0  0  0  0
    2.7510    0.0350   -1.8449 H   0  0  0  0  0  0  0  0  0  0  0  0
    4.8724    2.5452    1.0713 H   0  0  0  0  0  0  0  0  0  0  0  0
    3.5846    2.9211    2.2237 H   0  0  0  0  0  0  0  0  0  0  0  0
    4.4432    1.3726    2.3305 H   0  0  0  0  0  0  0  0  0  0  0  0
    2.8520   -1.2328    2.4490 H   0  0  0  0  0  0  0  0  0  0  0  0
    1.6691   -1.1925    3.7657 H   0  0  0  0  0  0  0  0  0  0  0  0
    0.9748   -1.6793    0.7887 H   0  0  0  0  0  0  0  0  0  0  0  0
   -0.2029   -1.5643    2.0821 H   0  0  0  0  0  0  0  0  0  0  0  0
    1.9133   -3.4102    2.7009 H   0  0  0  0  0  0  0  0  0  0  0  0
    0.3499   -4.0293    0.2896 H   0  0  0  0  0  0  0  0  0  0  0  0
    1.6830   -6.2327    0.3741 H   0  0  0  0  0  0  0  0  0  0  0  0
    0.4535   -6.1223    1.6022 H   0  0  0  0  0  0  0  0  0  0  0  0
    2.1612   -5.8282    2.0199 H   0  0  0  0  0  0  0  0  0  0  0  0
    3.3695   -3.7571    0.8883 H   0  0  0  0  0  0  0  0  0  0  0  0
    2.7300   -4.3968   -0.6316 H   0  0  0  0  0  0  0  0  0  0  0  0
    2.4186   -2.7333   -0.1989 H   0  0  0  0  0  0  0  0  0  0  0  0
   -0.2038   -2.8648    3.8575 H   0  0  0  0  0  0  0  0  0  0  0  0
   -2.1240   -4.3657    3.3186 H   0  0  0  0  0  0  0  0  0  0  0  0
   -1.7973   -3.2102    2.0355 H   0  0  0  0  0  0  0  0  0  0  0  0
   -1.3279   -4.8992    1.8431 H   0  0  0  0  0  0  0  0  0  0  0  0
   -0.2125   -4.8992    5.0334 H   0  0  0  0  0  0  0  0  0  0  0  0
    0.4764   -5.8239    3.7226 H   0  0  0  0  0  0  0  0  0  0  0  0
    1.4561   -4.5941    4.5435 H   0  0  0  0  0  0  0  0  0  0  0  0
  1  2  1  0
  2  3  1  0
  4  3  1  6
  4  5  1  0
  4  6  2  0
  4  7  1  0
  7  8  1  0
  8  9  1  0
  9 10  1  0
 10 11  1  0
 11 12  1  0
 11 13  1  0
 10 14  1  0
 14 15  1  0
 14 16  1  0
  1 17  1  0
  1 18  1  0
  1 19  1  0
  2 20  1  0
  2 21  1  0
  5 22  1  0
  5 23  1  0
  5 24  1  0
  8 25  1  0
  8 26  1  0
  9 27  1  0
  9 28  1  0
 10 29  1  1
 11 30  1  6
 12 31  1  0
 12 32  1  0
 12 33  1  0
 13 34  1  0
 13 35  1  0
 13 36  1  0
 14 37  1  6
 15 38  1  0
 15 39  1  0
 15 40  1  0
 16 41  1  0
 16 42  1  0
 16 43  1  0
M  CHG  1  10   1
M  END
$$$$
