VX
     RDKit          3D

 43 42  0  0  0  0  0  0  0  0999 V2000
    4.8156   -1.4463   -0.7158 C   0  0  0  0  0  0  0  0  0  0  0  0
    3.6403   -0.5409   -1.0240 C   0  0  0  0  0  0  0  0  0  0  0  0
    2.9929   -0.1981    0.1931 O   0  0  0  0  0  0  0  0  0  0  0  0
    2.8406    1.3649    0.5762 P   0  0  1  0  0  0  0  0  0  0  0  0
    4.0405    2.1356    1.6437 C   0  0  0  0  0  0  0  0  0  0  0  0
    1.6910    2.1677    0.0348 O   0  0  0  0  0  0  0  0  0  0  0  0
    1.5437    0.7772    2.4583 S   0  0  0  0  0  0  0  0  0  0  0  0
   -0.1674    0.9478    1.8837 C   0  0  0  0  0  0  0  0  0  0  0  0
   -0.4676    0.0398    0.6843 C   0  0  0  0  0  0  0  0  0  0  0  0
   -1.9750    0.0924    0.3354 N   0  0  2  0  0  0  0  0  0  0  0  0
   -2.6889   -1.2570    0.5243 C   0  0  1  0  0  0  0  0  0  0  0  0
   -2.1763   -2.3143   -0.4486 C   0  0  0  0  0  0  0  0  0  0  0  0
   -2.5897   -1.7057    1.9831 C   0  0  0  0  0  0  0  0  0  0  0  0
   -2.2298    0.7940   -1.0197 C   0  0  1  0  0  0  0  0  0  0  0  0
   -3.7154    0.7694   -1.3872 C   0  0  0  0  0  0  0  0  0  0  0  0
   -1.7797    2.2551   -0.9314 C   0  0  0  0  0  0  0  0  0  0  0  0
    5.5203   -0.9489   -0.0413 H   0  0  0  0  0  0  0  0  0  0  0  0
    4.4779   -2.3574   -0.2109 H   0  0  0  0  0  0  0  0  0  0  0  0
    5.3421   -1.7283   -1.6320 H   0  0  0  0  0  0  0  0  0  0  0  0
    3.9764    0.3531   -1.5588 H   0  0  0  0  0  0  0  0  0  0  0  0
    2.9167   -1.0614   -1.6584 H   0  0  0  0  0  0  0  0  0  0  0  0
    4.8741    2.5467    1.0676 H   0  0  0  0  0  0  0  0  0  0  0  0
    3.5792    2.9557    2.2017 H   0  0  0  0  0  0  0  0  0  0  0  0
    4.4418    1.4141    2.3616 H   0  0  0  0  0  0  0  0  0  0  0  0
   -0.3522    1.9971    1.6355 H   0  0  0  0  0  0  0  0  0  0  0  0
   -0.8199    0.6919    2.7243 H   0  0  0  0  0  0  0  0  0  0  0  0
    0.0902    0.3138   -0.2147 H   0  0  0  0  0  0  0  0  0  0  0  0
   -0.2048   -0.9952    0.9165 H   0  0  0  0  0  0  0  0  0  0  0  0
   -2.4209    0.7107    1.0264 H   0  0  0  0  0  0  0  0  0  0  0  0
   -3.7501   -1.0703    0.3357 H   0  0  0  0  0  0  0  0  0  0  0  0
   -2.2913   -1.9995   -1.4892 H   0  0  0  0  0  0  0  0  0  0  0  0
   -1.1236   -2.5617   -0.2854 H   0  0  0  0  0  0  0  0  0  0  0  0
   -2.7470   -3.2410   -0.3264 H   0  0  0  0  0  0  0  0  0  0  0  0
   -1.5773   -2.0134    2.2621 H   0  0  0  0  0  0  0  0  0  0  0  0
   -2.9086   -0.9097    2.6647 H   0  0  0  0  0  0  0  0  0  0  0  0
   -3.2445   -2.5678    2.1546 H   0  0  0  0  0  0  0  0  0  0  0  0
   -1.6442    0.2580   -1.7751 H   0  0  0  0  0  0  0  0  0  0  0  0
   -3.9049    1.3890   -2.2710 H   0  0  0  0  0  0  0  0  0  0  0  0
   -4.3386    1.1510   -0.5708 H   0  0  0  0  0  0  0  0  0  0  0  0
   -4.0553   -0.2381   -1.6454 H   0  0  0  0  0  0  0  0  0  0  0  0
   -0.7026    2.3463   -0.7784 H   0  0  0  0  0  0  0  0  0  0  0  0
   -2.2873    2.7835   -0.1177 H   0  0  0  0  0  0  0  0  0  0  0  0
   -2.0070    2.7826   -1.8648 H   0  0  0  0  0  0  0  0  0  0  0  0
  1  2  1  0
  2  3  1  0
  4  3  1  6
  4  5  1  0
  4  6  2  0
  4  7  1  0
  7  8  1  0
  8  9  1  0
  9 10  1  0
 10 11  1  0
 11 12  1  0
 11 13  1  0
 10 14  1  0
 14 15  1  0
 14 16  1  0
  1 17  1  0
  1 18  1  0
  1 19  1  0
  2 20  1  0
  2 21  1  0
  5 22  1  0
  5 23  1  0
  5 24  1  0
  8 25  1  0
  8 26  1  0
  9 27  1  0
  9 28  1  0
 10 29  1  1
 11 30  1  1
 12 31  1  0
 12 32  1  0
 12 33  1  0
 13 34  1  0
 13 35  1  0
 13 36  1  0
 14 37  1  1
 15 38  1  0
 15 39  1  0
 15 40  1  0
 16 41  1  0
 16 42  1  0
 16 43  1  0
M  CHG  1  10   1
M  END
$$$$
