VX
     RDKit          3D

 43 42  0  0  0  0  0  0  0  0999 V2000
    3.6049   -2.0381   -1.1863 C   0  0  0  0  0  0  0  0  0  0  0  0
    3.5223   -0.5298   -1.0768 C   0  0  0  0  0  0  0  0  0  0  0  0
    3.0067   -0.1961    0.2032 O   0  0  0  0  0  0  0  0  0  0  0  0
    2.8320    1.3653    0.5704 P   0  0  1  0  0  0  0  0  0  0  0  0
    4.0391    2.1233    1.6389 C   0  0  0  0  0  0  0  0  0  0  0  0
    1.6872    2.1776    0.0352 O   0  0  0  0  0  0  0  0  0  0  0  0
    1.5351    0.7776    2.4525 S   0  0  0  0  0  0  0  0  0  0  0  0
    0.0082    0.1805    1.6616 C   0  0  0  0  0  0  0  0  0  0  0  0
   -1.0498    1.2842    1.4992 C   0  0  0  0  0  0  0  0  0  0  0  0
   -1.2992    2.0595    2.8141 N   0  0  2  0  0  0  0  0  0  0  0  0
   -2.4505    1.4992    3.6710 C   0  0  1  0  0  0  0  0  0  0  0  0
   -3.8100    1.6879    2.9999 C   0  0  0  0  0  0  0  0  0  0  0  0
   -2.2142    0.0403    4.0474 C   0  0  0  0  0  0  0  0  0  0  0  0
   -1.3600    3.5956    2.5912 C   0  0  2  0  0  0  0  0  0  0  0  0
   -0.0003    4.1230    2.1232 C   0  0  0  0  0  0  0  0  0  0  0  0
   -1.7239    4.3364    3.8824 C   0  0  0  0  0  0  0  0  0  0  0  0
    4.2534   -2.4466   -0.4042 H   0  0  0  0  0  0  0  0  0  0  0  0
    3.9968   -2.3379   -2.1623 H   0  0  0  0  0  0  0  0  0  0  0  0
    2.6167   -2.4894   -1.0484 H   0  0  0  0  0  0  0  0  0  0  0  0
    4.5158   -0.0893   -1.1999 H   0  0  0  0  0  0  0  0  0  0  0  0
    2.8581   -0.1327   -1.8505 H   0  0  0  0  0  0  0  0  0  0  0  0
    4.8585    2.5574    1.0600 H   0  0  0  0  0  0  0  0  0  0  0  0
    4.4593    1.3889    2.3318 H   0  0  0  0  0  0  0  0  0  0  0  0
    3.5796    2.9242    2.2253 H   0  0  0  0  0  0  0  0  0  0  0  0
   -0.3697   -0.6464    2.2647 H   0  0  0  0  0  0  0  0  0  0  0  0
    0.2501   -0.2413    0.6806 H   0  0  0  0  0  0  0  0  0  0  0  0
   -0.7414    1.9958    0.7311 H   0  0  0  0  0  0  0  0  0  0  0  0
   -1.9993    0.8596    1.1650 H   0  0  0  0  0  0  0  0  0  0  0  0
   -0.4396    1.9136    3.3684 H   0  0  0  0  0  0  0  0  0  0  0  0
   -2.4246    2.0581    4.6109 H   0  0  0  0  0  0  0  0  0  0  0  0
   -3.9199    1.0759    2.1002 H   0  0  0  0  0  0  0  0  0  0  0  0
   -3.9976    2.7293    2.7256 H   0  0  0  0  0  0  0  0  0  0  0  0
   -4.6086    1.3888    3.6885 H   0  0  0  0  0  0  0  0  0  0  0  0
   -2.3603   -0.6324    3.1974 H   0  0  0  0  0  0  0  0  0  0  0  0
   -1.2110   -0.1091    4.4587 H   0  0  0  0  0  0  0  0  0  0  0  0
   -2.9304   -0.2668    4.8183 H   0  0  0  0  0  0  0  0  0  0  0  0
   -2.1205    3.7742    1.8232 H   0  0  0  0  0  0  0  0  0  0  0  0
    0.8013    3.8443    2.8146 H   0  0  0  0  0  0  0  0  0  0  0  0
   -0.0147    5.2174    2.0609 H   0  0  0  0  0  0  0  0  0  0  0  0
    0.2591    3.7707    1.1250 H   0  0  0  0  0  0  0  0  0  0  0  0
   -1.0639    4.0505    4.7085 H   0  0  0  0  0  0  0  0  0  0  0  0
   -2.7602    4.1575    4.1826 H   0  0  0  0  0  0  0  0  0  0  0  0
   -1.6331    5.4200    3.7442 H   0  0  0  0  0  0  0  0  0  0  0  0
  1  2  1  0
  2  3  1  0
  4  3  1  6
  4  5  1  0
  4  6  2  0
  4  7  1  0
  7  8  1  0
  8  9  1  0
  9 10  1  0
 10 11  1  0
 11 12  1  0
 11 13  1  0
 10 14  1  0
 14 15  1  0
 14 16  1  0
  1 17  1  0
  1 18  1  0
  1 19  1  0
  2 20  1  0
  2 21  1  0
  5 22  1  0
  5 23  1  0
  5 24  1  0
  8 25  1  0
  8 26  1  0
  9 27  1  0
  9 28  1  0
 10 29  1  1
 11 30  1  6
 12 31  1  0
 12 32  1  0
 12 33  1  0
 13 34  1  0
 13 35  1  0
 13 36  1  0
 14 37  1  6
 15 38  1  0
 15 39  1  0
 15 40  1  0
 16 41  1  0
 16 42  1  0
 16 43  1  0
M  CHG  1  10   1
M  END
$$$$
