VX
     RDKit          3D

 43 42  0  0  0  0  0  0  0  0999 V2000
    3.3277   -1.9676   -1.3624 C   0  0  0  0  0  0  0  0  0  0  0  0
    3.6589   -0.5318   -1.0141 C   0  0  0  0  0  0  0  0  0  0  0  0
    3.0051   -0.1986    0.2014 O   0  0  0  0  0  0  0  0  0  0  0  0
    2.8327    1.3660    0.5711 P   0  0  1  0  0  0  0  0  0  0  0  0
    4.0394    2.1257    1.6399 C   0  0  0  0  0  0  0  0  0  0  0  0
    1.6877    2.1770    0.0354 O   0  0  0  0  0  0  0  0  0  0  0  0
    1.5358    0.7783    2.4532 S   0  0  0  0  0  0  0  0  0  0  0  0
   -0.0153    0.2478    1.6729 C   0  0  0  0  0  0  0  0  0  0  0  0
   -1.0717   -0.0260    2.7396 C   0  0  0  0  0  0  0  0  0  0  0  0
   -2.4211   -0.5184    2.2040 N   0  0  1  0  0  0  0  0  0  0  0  0
   -3.0426    0.3578    1.1057 C   0  0  1  0  0  0  0  0  0  0  0  0
   -2.7168   -0.1297   -0.3010 C   0  0  0  0  0  0  0  0  0  0  0  0
   -4.5553    0.4377    1.3254 C   0  0  0  0  0  0  0  0  0  0  0  0
   -2.6154   -2.0360    2.0816 C   0  0  1  0  0  0  0  0  0  0  0  0
   -1.4409   -2.7419    1.4177 C   0  0  0  0  0  0  0  0  0  0  0  0
   -2.8893   -2.6176    3.4707 C   0  0  0  0  0  0  0  0  0  0  0  0
    3.6288   -2.6416   -0.5537 H   0  0  0  0  0  0  0  0  0  0  0  0
    2.2478   -2.0918   -1.4940 H   0  0  0  0  0  0  0  0  0  0  0  0
    3.8327   -2.2717   -2.2837 H   0  0  0  0  0  0  0  0  0  0  0  0
    4.7380   -0.4161   -0.8795 H   0  0  0  0  0  0  0  0  0  0  0  0
    3.3289    0.1340   -1.8177 H   0  0  0  0  0  0  0  0  0  0  0  0
    4.8633    2.5497    1.0592 H   0  0  0  0  0  0  0  0  0  0  0  0
    4.4530    1.3932    2.3390 H   0  0  0  0  0  0  0  0  0  0  0  0
    3.5819    2.9334    2.2186 H   0  0  0  0  0  0  0  0  0  0  0  0
   -0.3406    1.0510    1.0077 H   0  0  0  0  0  0  0  0  0  0  0  0
    0.2018   -0.6329    1.0675 H   0  0  0  0  0  0  0  0  0  0  0  0
   -0.7307   -0.7637    3.4732 H   0  0  0  0  0  0  0  0  0  0  0  0
   -1.3020    0.8980    3.2859 H   0  0  0  0  0  0  0  0  0  0  0  0
   -3.0230   -0.2917    3.0066 H   0  0  0  0  0  0  0  0  0  0  0  0
   -2.6350    1.3648    1.2515 H   0  0  0  0  0  0  0  0  0  0  0  0
   -3.1743   -1.0998   -0.5186 H   0  0  0  0  0  0  0  0  0  0  0  0
   -1.6419   -0.2109   -0.4750 H   0  0  0  0  0  0  0  0  0  0  0  0
   -3.1065    0.5793   -1.0396 H   0  0  0  0  0  0  0  0  0  0  0  0
   -4.7896    0.8167    2.3254 H   0  0  0  0  0  0  0  0  0  0  0  0
   -5.0414   -0.5357    1.2084 H   0  0  0  0  0  0  0  0  0  0  0  0
   -5.0092    1.1224    0.6006 H   0  0  0  0  0  0  0  0  0  0  0  0
   -3.5164   -2.1898    1.4795 H   0  0  0  0  0  0  0  0  0  0  0  0
   -1.6674   -3.8068    1.2947 H   0  0  0  0  0  0  0  0  0  0  0  0
   -1.2308   -2.3471    0.4218 H   0  0  0  0  0  0  0  0  0  0  0  0
   -0.5286   -2.6807    2.0193 H   0  0  0  0  0  0  0  0  0  0  0  0
   -3.7527   -2.1324    3.9392 H   0  0  0  0  0  0  0  0  0  0  0  0
   -2.0301   -2.5059    4.1404 H   0  0  0  0  0  0  0  0  0  0  0  0
   -3.1138   -3.6873    3.3974 H   0  0  0  0  0  0  0  0  0  0  0  0
  1  2  1  0
  2  3  1  0
  4  3  1  6
  4  5  1  0
  4  6  2  0
  4  7  1  0
  7  8  1  0
  8  9  1  0
  9 10  1  0
 10 11  1  0
 11 12  1  0
 11 13  1  0
 10 14  1  0
 14 15  1  0
 14 16  1  0
  1 17  1  0
  1 18  1  0
  1 19  1  0
  2 20  1  0
  2 21  1  0
  5 22  1  0
  5 23  1  0
  5 24  1  0
  8 25  1  0
  8 26  1  0
  9 27  1  0
  9 28  1  0
 10 29  1  6
 11 30  1  1
 12 31  1  0
 12 32  1  0
 12 33  1  0
 13 34  1  0
 13 35  1  0
 13 36  1  0
 14 37  1  1
 15 38  1  0
 15 39  1  0
 15 40  1  0
 16 41  1  0
 16 42  1  0
 16 43  1  0
M  CHG  1  10   1
M  END
$$$$
