VX
     RDKit          3D

 43 42  0  0  0  0  0  0  0  0999 V2000
    2.3810   -1.0866   -1.9257 C   0  0  0  0  0  0  0  0  0  0  0  0
    3.5118   -0.5366   -1.0815 C   0  0  0  0  0  0  0  0  0  0  0  0
    3.0086   -0.1984    0.2038 O   0  0  0  0  0  0  0  0  0  0  0  0
    2.8299    1.3665    0.5694 P   0  0  1  0  0  0  0  0  0  0  0  0
    4.0389    2.1228    1.6386 C   0  0  0  0  0  0  0  0  0  0  0  0
    1.6875    2.1792    0.0360 O   0  0  0  0  0  0  0  0  0  0  0  0
    1.5330    0.7788    2.4515 S   0  0  0  0  0  0  0  0  0  0  0  0
   -0.0951    0.4769    1.6852 C   0  0  0  0  0  0  0  0  0  0  0  0
   -1.1351    0.0484    2.7285 C   0  0  0  0  0  0  0  0  0  0  0  0
   -0.5859   -1.0626    3.6539 N   0  0  2  0  0  0  0  0  0  0  0  0
   -0.6110   -2.4111    2.9063 C   0  0  2  0  0  0  0  0  0  0  0  0
   -1.9346   -3.1480    3.0764 C   0  0  0  0  0  0  0  0  0  0  0  0
    0.6154   -3.2555    3.2395 C   0  0  0  0  0  0  0  0  0  0  0  0
   -1.1646   -1.0156    5.0849 C   0  0  2  0  0  0  0  0  0  0  0  0
   -0.9418    0.3674    5.7163 C   0  0  0  0  0  0  0  0  0  0  0  0
   -0.4816   -2.0412    5.9912 C   0  0  0  0  0  0  0  0  0  0  0  0
    1.5908   -0.3395   -2.0498 H   0  0  0  0  0  0  0  0  0  0  0  0
    1.9235   -1.9545   -1.4390 H   0  0  0  0  0  0  0  0  0  0  0  0
    2.7428   -1.3857   -2.9136 H   0  0  0  0  0  0  0  0  0  0  0  0
    4.2872   -1.2974   -0.9488 H   0  0  0  0  0  0  0  0  0  0  0  0
    3.9696    0.3312   -1.5674 H   0  0  0  0  0  0  0  0  0  0  0  0
    4.8795    2.5164    1.0606 H   0  0  0  0  0  0  0  0  0  0  0  0
    4.4284    1.3967    2.3578 H   0  0  0  0  0  0  0  0  0  0  0  0
    3.5920    2.9515    2.1949 H   0  0  0  0  0  0  0  0  0  0  0  0
   -0.4344    1.3931    1.1918 H   0  0  0  0  0  0  0  0  0  0  0  0
    0.0264   -0.2853    0.9105 H   0  0  0  0  0  0  0  0  0  0  0  0
   -2.0555   -0.3206    2.2652 H   0  0  0  0  0  0  0  0  0  0  0  0
   -1.3922    0.9179    3.3322 H   0  0  0  0  0  0  0  0  0  0  0  0
    0.4107   -0.8068    3.7603 H   0  0  0  0  0  0  0  0  0  0  0  0
   -0.5173   -2.1651    1.8436 H   0  0  0  0  0  0  0  0  0  0  0  0
   -2.7851   -2.5064    2.8246 H   0  0  0  0  0  0  0  0  0  0  0  0
   -2.0836   -3.5270    4.0905 H   0  0  0  0  0  0  0  0  0  0  0  0
   -1.9685   -4.0135    2.4041 H   0  0  0  0  0  0  0  0  0  0  0  0
    0.7064   -4.0748    2.5167 H   0  0  0  0  0  0  0  0  0  0  0  0
    0.5686   -3.7182    4.2260 H   0  0  0  0  0  0  0  0  0  0  0  0
    1.5354   -2.6651    3.1782 H   0  0  0  0  0  0  0  0  0  0  0  0
   -2.2378   -1.2186    5.0063 H   0  0  0  0  0  0  0  0  0  0  0  0
    0.0898    0.7102    5.5852 H   0  0  0  0  0  0  0  0  0  0  0  0
   -1.6192    1.1224    5.3075 H   0  0  0  0  0  0  0  0  0  0  0  0
   -1.1500    0.3428    6.7924 H   0  0  0  0  0  0  0  0  0  0  0  0
   -0.7674   -3.0658    5.7471 H   0  0  0  0  0  0  0  0  0  0  0  0
    0.6094   -1.9551    5.9459 H   0  0  0  0  0  0  0  0  0  0  0  0
   -0.7802   -1.8952    7.0361 H   0  0  0  0  0  0  0  0  0  0  0  0
  1  2  1  0
  2  3  1  0
  4  3  1  6
  4  5  1  0
  4  6  2  0
  4  7  1  0
  7  8  1  0
  8  9  1  0
  9 10  1  0
 10 11  1  0
 11 12  1  0
 11 13  1  0
 10 14  1  0
 14 15  1  0
 14 16  1  0
  1 17  1  0
  1 18  1  0
  1 19  1  0
  2 20  1  0
  2 21  1  0
  5 22  1  0
  5 23  1  0
  5 24  1  0
  8 25  1  0
  8 26  1  0
  9 27  1  0
  9 28  1  0
 10 29  1  1
 11 30  1  6
 12 31  1  0
 12 32  1  0
 12 33  1  0
 13 34  1  0
 13 35  1  0
 13 36  1  0
 14 37  1  6
 15 38  1  0
 15 39  1  0
 15 40  1  0
 16 41  1  0
 16 42  1  0
 16 43  1  0
M  CHG  1  10   1
M  END
$$$$
