VX
     RDKit          3D

 43 42  0  0  0  0  0  0  0  0999 V2000
    2.9307    0.5373   -1.9737 C   0  0  0  0  0  0  0  0  0  0  0  0
    3.5661   -0.1046   -0.7584 C   0  0  0  0  0  0  0  0  0  0  0  0
    2.5437   -0.4391    0.1722 O   0  0  0  0  0  0  0  0  0  0  0  0
    2.4615    0.4048    1.5529 P   0  0  1  0  0  0  0  0  0  0  0  0
    3.1315   -0.3272    3.0345 C   0  0  0  0  0  0  0  0  0  0  0  0
    1.8414    1.7694    1.6050 O   0  0  0  0  0  0  0  0  0  0  0  0
    0.3626   -0.5669    2.0219 S   0  0  0  0  0  0  0  0  0  0  0  0
    0.0754   -1.7545    0.6852 C   0  0  0  0  0  0  0  0  0  0  0  0
   -0.5299   -1.2041   -0.6214 C   0  0  0  0  0  0  0  0  0  0  0  0
   -1.8934   -0.4670   -0.5111 N   0  0  1  0  0  0  0  0  0  0  0  0
   -2.8939   -1.2553    0.3823 C   0  0  2  0  0  0  0  0  0  0  0  0
   -3.1625   -2.6276   -0.2505 C   0  0  0  0  0  0  0  0  0  0  0  0
   -4.2338   -0.5557    0.5748 C   0  0  0  0  0  0  0  0  0  0  0  0
   -1.8075    1.0696   -0.2504 C   0  0  1  0  0  0  0  0  0  0  0  0
   -0.5118    1.6924   -0.7812 C   0  0  0  0  0  0  0  0  0  0  0  0
   -2.9360    1.7921   -1.0087 C   0  0  0  0  0  0  0  0  0  0  0  0
    2.4180    1.4639   -1.6972 H   0  0  0  0  0  0  0  0  0  0  0  0
    2.1771   -0.1255   -2.4104 H   0  0  0  0  0  0  0  0  0  0  0  0
    3.6834    0.7662   -2.7329 H   0  0  0  0  0  0  0  0  0  0  0  0
    4.3054    0.5667   -0.3122 H   0  0  0  0  0  0  0  0  0  0  0  0
    4.0758   -1.0298   -1.0427 H   0  0  0  0  0  0  0  0  0  0  0  0
    2.6007    0.0425    3.9169 H   0  0  0  0  0  0  0  0  0  0  0  0
    4.1912   -0.0838    3.1493 H   0  0  0  0  0  0  0  0  0  0  0  0
    3.0317   -1.4162    3.0048 H   0  0  0  0  0  0  0  0  0  0  0  0
   -0.5595   -2.5467    1.0915 H   0  0  0  0  0  0  0  0  0  0  0  0
    1.0266   -2.2448    0.4522 H   0  0  0  0  0  0  0  0  0  0  0  0
    0.1746   -0.5775   -1.1702 H   0  0  0  0  0  0  0  0  0  0  0  0
   -0.7204   -2.0485   -1.2947 H   0  0  0  0  0  0  0  0  0  0  0  0
   -2.2784   -0.5267   -1.4620 H   0  0  0  0  0  0  0  0  0  0  0  0
   -2.4323   -1.3659    1.3661 H   0  0  0  0  0  0  0  0  0  0  0  0
   -3.9134   -3.1780    0.3276 H   0  0  0  0  0  0  0  0  0  0  0  0
   -3.5387   -2.5257   -1.2746 H   0  0  0  0  0  0  0  0  0  0  0  0
   -2.2717   -3.2597   -0.2776 H   0  0  0  0  0  0  0  0  0  0  0  0
   -4.7386   -0.3744   -0.3793 H   0  0  0  0  0  0  0  0  0  0  0  0
   -4.1265    0.3800    1.1301 H   0  0  0  0  0  0  0  0  0  0  0  0
   -4.9044   -1.1829    1.1746 H   0  0  0  0  0  0  0  0  0  0  0  0
   -1.8868    1.2203    0.8305 H   0  0  0  0  0  0  0  0  0  0  0  0
   -0.5130    2.7766   -0.6182 H   0  0  0  0  0  0  0  0  0  0  0  0
   -0.3939    1.5240   -1.8577 H   0  0  0  0  0  0  0  0  0  0  0  0
    0.3723    1.3153   -0.2754 H   0  0  0  0  0  0  0  0  0  0  0  0
   -3.9311    1.6048   -0.6117 H   0  0  0  0  0  0  0  0  0  0  0  0
   -2.9411    1.5191   -2.0698 H   0  0  0  0  0  0  0  0  0  0  0  0
   -2.8014    2.8790   -0.9509 H   0  0  0  0  0  0  0  0  0  0  0  0
  1  2  1  0
  2  3  1  0
  4  3  1  6
  4  5  1  0
  4  6  2  0
  4  7  1  0
  7  8  1  0
  8  9  1  0
  9 10  1  0
 10 11  1  0
 11 12  1  0
 11 13  1  0
 10 14  1  0
 14 15  1  0
 14 16  1  0
  1 17  1  0
  1 18  1  0
  1 19  1  0
  2 20  1  0
  2 21  1  0
  5 22  1  0
  5 23  1  0
  5 24  1  0
  8 25  1  0
  8 26  1  0
  9 27  1  0
  9 28  1  0
 10 29  1  6
 11 30  1  1
 12 31  1  0
 12 32  1  0
 12 33  1  0
 13 34  1  0
 13 35  1  0
 13 36  1  0
 14 37  1  1
 15 38  1  0
 15 39  1  0
 15 40  1  0
 16 41  1  0
 16 42  1  0
 16 43  1  0
M  CHG  1  10   1
M  END
$$$$
