VX
     RDKit          3D

 43 42  0  0  0  0  0  0  0  0999 V2000
    3.5696   -2.0325   -1.2148 C   0  0  0  0  0  0  0  0  0  0  0  0
    3.5670   -0.5250   -1.0655 C   0  0  0  0  0  0  0  0  0  0  0  0
    2.9894   -0.1986    0.1905 O   0  0  0  0  0  0  0  0  0  0  0  0
    2.8431    1.3652    0.5781 P   0  0  1  0  0  0  0  0  0  0  0  0
    4.0398    2.1384    1.6441 C   0  0  0  0  0  0  0  0  0  0  0  0
    1.6926    2.1651    0.0351 O   0  0  0  0  0  0  0  0  0  0  0  0
    1.5462    0.7775    2.4602 S   0  0  0  0  0  0  0  0  0  0  0  0
   -0.1511    0.7615    1.8226 C   0  0  0  0  0  0  0  0  0  0  0  0
   -0.3147   -0.2066    0.6441 C   0  0  0  0  0  0  0  0  0  0  0  0
   -1.7966   -0.2757    0.2064 N   0  0  2  0  0  0  0  0  0  0  0  0
   -2.4396   -1.6381    0.5518 C   0  0  2  0  0  0  0  0  0  0  0  0
   -3.8891   -1.7054    0.0679 C   0  0  0  0  0  0  0  0  0  0  0  0
   -2.4231   -1.8405    2.0704 C   0  0  0  0  0  0  0  0  0  0  0  0
   -2.0244    0.2131   -1.2363 C   0  0  2  0  0  0  0  0  0  0  0  0
   -1.3453   -0.6926   -2.2592 C   0  0  0  0  0  0  0  0  0  0  0  0
   -1.6014    1.6754   -1.3749 C   0  0  0  0  0  0  0  0  0  0  0  0
    3.9932   -2.3298   -2.1779 H   0  0  0  0  0  0  0  0  0  0  0  0
    4.1528   -2.4980   -0.4132 H   0  0  0  0  0  0  0  0  0  0  0  0
    2.5516   -2.4295   -1.1392 H   0  0  0  0  0  0  0  0  0  0  0  0
    4.5901   -0.1413   -1.1132 H   0  0  0  0  0  0  0  0  0  0  0  0
    2.9757   -0.0699   -1.8664 H   0  0  0  0  0  0  0  0  0  0  0  0
    4.8652    2.5652    1.0678 H   0  0  0  0  0  0  0  0  0  0  0  0
    4.4542    1.4168    2.3545 H   0  0  0  0  0  0  0  0  0  0  0  0
    3.5739    2.9486    2.2131 H   0  0  0  0  0  0  0  0  0  0  0  0
   -0.4221    1.7779    1.5200 H   0  0  0  0  0  0  0  0  0  0  0  0
   -0.8110    0.4823    2.6490 H   0  0  0  0  0  0  0  0  0  0  0  0
    0.2777    0.1095   -0.2141 H   0  0  0  0  0  0  0  0  0  0  0  0
    0.0069   -1.2231    0.8948 H   0  0  0  0  0  0  0  0  0  0  0  0
   -2.3101    0.4074    0.7790 H   0  0  0  0  0  0  0  0  0  0  0  0
   -1.8396   -2.4110    0.0598 H   0  0  0  0  0  0  0  0  0  0  0  0
   -3.9516   -1.7571   -1.0231 H   0  0  0  0  0  0  0  0  0  0  0  0
   -4.3795   -2.6097    0.4454 H   0  0  0  0  0  0  0  0  0  0  0  0
   -4.4693   -0.8423    0.4116 H   0  0  0  0  0  0  0  0  0  0  0  0
   -1.4070   -1.9123    2.4682 H   0  0  0  0  0  0  0  0  0  0  0  0
   -2.9364   -1.0222    2.5875 H   0  0  0  0  0  0  0  0  0  0  0  0
   -2.9291   -2.7746    2.3386 H   0  0  0  0  0  0  0  0  0  0  0  0
   -3.1061    0.1953   -1.3960 H   0  0  0  0  0  0  0  0  0  0  0  0
   -0.2557   -0.6975   -2.1603 H   0  0  0  0  0  0  0  0  0  0  0  0
   -1.5752   -0.3485   -3.2740 H   0  0  0  0  0  0  0  0  0  0  0  0
   -1.6961   -1.7258   -2.1821 H   0  0  0  0  0  0  0  0  0  0  0  0
   -1.9482    2.0753   -2.3345 H   0  0  0  0  0  0  0  0  0  0  0  0
   -2.0385    2.2923   -0.5826 H   0  0  0  0  0  0  0  0  0  0  0  0
   -0.5163    1.8017   -1.3513 H   0  0  0  0  0  0  0  0  0  0  0  0
  1  2  1  0
  2  3  1  0
  4  3  1  6
  4  5  1  0
  4  6  2  0
  4  7  1  0
  7  8  1  0
  8  9  1  0
  9 10  1  0
 10 11  1  0
 11 12  1  0
 11 13  1  0
 10 14  1  0
 14 15  1  0
 14 16  1  0
  1 17  1  0
  1 18  1  0
  1 19  1  0
  2 20  1  0
  2 21  1  0
  5 22  1  0
  5 23  1  0
  5 24  1  0
  8 25  1  0
  8 26  1  0
  9 27  1  0
  9 28  1  0
 10 29  1  1
 11 30  1  6
 12 31  1  0
 12 32  1  0
 12 33  1  0
 13 34  1  0
 13 35  1  0
 13 36  1  0
 14 37  1  6
 15 38  1  0
 15 39  1  0
 15 40  1  0
 16 41  1  0
 16 42  1  0
 16 43  1  0
M  CHG  1  10   1
M  END
$$$$
