VX
     RDKit          3D

 43 42  0  0  0  0  0  0  0  0999 V2000
    3.8223   -2.0150   -1.1084 C   0  0  0  0  0  0  0  0  0  0  0  0
    3.5220   -0.5310   -1.0776 C   0  0  0  0  0  0  0  0  0  0  0  0
    3.0065   -0.1976    0.2026 O   0  0  0  0  0  0  0  0  0  0  0  0
    2.8325    1.3653    0.5708 P   0  0  1  0  0  0  0  0  0  0  0  0
    4.0399    2.1242    1.6397 C   0  0  0  0  0  0  0  0  0  0  0  0
    1.6861    2.1782    0.0346 O   0  0  0  0  0  0  0  0  0  0  0  0
    1.5356    0.7776    2.4529 S   0  0  0  0  0  0  0  0  0  0  0  0
    0.0606    1.8338    2.2894 C   0  0  0  0  0  0  0  0  0  0  0  0
   -0.8408    1.4613    1.1003 C   0  0  0  0  0  0  0  0  0  0  0  0
   -1.9769    0.4688    1.4390 N   0  0  1  0  0  0  0  0  0  0  0  0
   -1.4308   -0.9687    1.5904 C   0  0  2  0  0  0  0  0  0  0  0  0
   -2.2472   -1.9303    0.7283 C   0  0  0  0  0  0  0  0  0  0  0  0
   -1.3259   -1.4276    3.0402 C   0  0  0  0  0  0  0  0  0  0  0  0
   -3.0123    0.9617    2.4703 C   0  0  2  0  0  0  0  0  0  0  0  0
   -4.3014    0.1451    2.3600 C   0  0  0  0  0  0  0  0  0  0  0  0
   -3.3676    2.4341    2.2341 C   0  0  0  0  0  0  0  0  0  0  0  0
    4.5632   -2.2740   -0.3448 H   0  0  0  0  0  0  0  0  0  0  0  0
    2.9217   -2.5970   -0.8873 H   0  0  0  0  0  0  0  0  0  0  0  0
    4.2058   -2.3141   -2.0876 H   0  0  0  0  0  0  0  0  0  0  0  0
    4.4341    0.0403   -1.2757 H   0  0  0  0  0  0  0  0  0  0  0  0
    2.7755   -0.2806   -1.8372 H   0  0  0  0  0  0  0  0  0  0  0  0
    4.8443    2.5841    1.0595 H   0  0  0  0  0  0  0  0  0  0  0  0
    3.5806    2.9043    2.2531 H   0  0  0  0  0  0  0  0  0  0  0  0
    4.4817    1.3819    2.3107 H   0  0  0  0  0  0  0  0  0  0  0  0
    0.4255    2.8579    2.1521 H   0  0  0  0  0  0  0  0  0  0  0  0
   -0.4843    1.8173    3.2368 H   0  0  0  0  0  0  0  0  0  0  0  0
   -1.3323    2.3567    0.7065 H   0  0  0  0  0  0  0  0  0  0  0  0
   -0.2997    1.0220    0.2572 H   0  0  0  0  0  0  0  0  0  0  0  0
   -2.5021    0.4501    0.5550 H   0  0  0  0  0  0  0  0  0  0  0  0
   -0.4256   -0.9632    1.1572 H   0  0  0  0  0  0  0  0  0  0  0  0
   -2.2654   -1.5994   -0.3163 H   0  0  0  0  0  0  0  0  0  0  0  0
   -3.2797   -2.0359    1.0673 H   0  0  0  0  0  0  0  0  0  0  0  0
   -1.7959   -2.9288    0.7464 H   0  0  0  0  0  0  0  0  0  0  0  0
   -0.7532   -2.3603    3.0934 H   0  0  0  0  0  0  0  0  0  0  0  0
   -2.3001   -1.6331    3.4890 H   0  0  0  0  0  0  0  0  0  0  0  0
   -0.8126   -0.6958    3.6684 H   0  0  0  0  0  0  0  0  0  0  0  0
   -2.5714    0.8552    3.4653 H   0  0  0  0  0  0  0  0  0  0  0  0
   -5.0831    0.5712    2.9991 H   0  0  0  0  0  0  0  0  0  0  0  0
   -4.1710   -0.8877    2.6893 H   0  0  0  0  0  0  0  0  0  0  0  0
   -4.6831    0.1350    1.3335 H   0  0  0  0  0  0  0  0  0  0  0  0
   -2.5258    3.0981    2.4491 H   0  0  0  0  0  0  0  0  0  0  0  0
   -3.6983    2.6079    1.2044 H   0  0  0  0  0  0  0  0  0  0  0  0
   -4.1793    2.7455    2.9021 H   0  0  0  0  0  0  0  0  0  0  0  0
  1  2  1  0
  2  3  1  0
  4  3  1  6
  4  5  1  0
  4  6  2  0
  4  7  1  0
  7  8  1  0
  8  9  1  0
  9 10  1  0
 10 11  1  0
 11 12  1  0
 11 13  1  0
 10 14  1  0
 14 15  1  0
 14 16  1  0
  1 17  1  0
  1 18  1  0
  1 19  1  0
  2 20  1  0
  2 21  1  0
  5 22  1  0
  5 23  1  0
  5 24  1  0
  8 25  1  0
  8 26  1  0
  9 27  1  0
  9 28  1  0
 10 29  1  1
 11 30  1  6
 12 31  1  0
 12 32  1  0
 12 33  1  0
 13 34  1  0
 13 35  1  0
 13 36  1  0
 14 37  1  1
 15 38  1  0
 15 39  1  0
 15 40  1  0
 16 41  1  0
 16 42  1  0
 16 43  1  0
M  CHG  1  10   1
M  END
$$$$
