VX
     RDKit          3D

 43 42  0  0  0  0  0  0  0  0999 V2000
    4.5475   -1.6817   -0.8421 C   0  0  0  0  0  0  0  0  0  0  0  0
    3.5792   -0.5373   -1.0550 C   0  0  0  0  0  0  0  0  0  0  0  0
    2.9945   -0.1977    0.1944 O   0  0  0  0  0  0  0  0  0  0  0  0
    2.8398    1.3647    0.5757 P   0  0  1  0  0  0  0  0  0  0  0  0
    4.0406    2.1340    1.6433 C   0  0  0  0  0  0  0  0  0  0  0  0
    1.6900    2.1691    0.0345 O   0  0  0  0  0  0  0  0  0  0  0  0
    1.5430    0.7770    2.4578 S   0  0  0  0  0  0  0  0  0  0  0  0
   -0.1658    1.1292    1.9491 C   0  0  0  0  0  0  0  0  0  0  0  0
   -0.5715    0.2864    0.7351 C   0  0  0  0  0  0  0  0  0  0  0  0
   -1.9720    0.5943    0.1720 N   0  0  1  0  0  0  0  0  0  0  0  0
   -3.0897    0.4752    1.2143 C   0  0  2  0  0  0  0  0  0  0  0  0
   -4.2693   -0.3237    0.6578 C   0  0  0  0  0  0  0  0  0  0  0  0
   -3.5316    1.8028    1.8058 C   0  0  0  0  0  0  0  0  0  0  0  0
   -1.9656    1.6555   -0.9406 C   0  0  1  0  0  0  0  0  0  0  0  0
   -3.2610    1.6224   -1.7452 C   0  0  0  0  0  0  0  0  0  0  0  0
   -1.6210    3.0669   -0.4884 C   0  0  0  0  0  0  0  0  0  0  0  0
    5.0078   -1.9856   -1.7865 H   0  0  0  0  0  0  0  0  0  0  0  0
    4.0355   -2.5453   -0.4046 H   0  0  0  0  0  0  0  0  0  0  0  0
    5.3374   -1.3905   -0.1416 H   0  0  0  0  0  0  0  0  0  0  0  0
    4.0986    0.3199   -1.4940 H   0  0  0  0  0  0  0  0  0  0  0  0
    2.7776   -0.8379   -1.7365 H   0  0  0  0  0  0  0  0  0  0  0  0
    4.4466    1.4089    2.3543 H   0  0  0  0  0  0  0  0  0  0  0  0
    4.8717    2.5505    1.0681 H   0  0  0  0  0  0  0  0  0  0  0  0
    3.5811    2.9485    2.2095 H   0  0  0  0  0  0  0  0  0  0  0  0
   -0.2467    2.1999    1.7648 H   0  0  0  0  0  0  0  0  0  0  0  0
   -0.8024    0.8989    2.8079 H   0  0  0  0  0  0  0  0  0  0  0  0
    0.1213    0.3734   -0.1055 H   0  0  0  0  0  0  0  0  0  0  0  0
   -0.6020   -0.7746    1.0145 H   0  0  0  0  0  0  0  0  0  0  0  0
   -2.1175   -0.2526   -0.3934 H   0  0  0  0  0  0  0  0  0  0  0  0
   -2.6715   -0.1380    2.0212 H   0  0  0  0  0  0  0  0  0  0  0  0
   -4.8463    0.2345   -0.0822 H   0  0  0  0  0  0  0  0  0  0  0  0
   -4.9603   -0.5813    1.4690 H   0  0  0  0  0  0  0  0  0  0  0  0
   -3.9384   -1.2631    0.2027 H   0  0  0  0  0  0  0  0  0  0  0  0
   -4.0765    2.4162    1.0836 H   0  0  0  0  0  0  0  0  0  0  0  0
   -4.2159    1.6262    2.6435 H   0  0  0  0  0  0  0  0  0  0  0  0
   -2.6905    2.3785    2.1998 H   0  0  0  0  0  0  0  0  0  0  0  0
   -1.1722    1.3270   -1.6247 H   0  0  0  0  0  0  0  0  0  0  0  0
   -3.5099    0.6041   -2.0613 H   0  0  0  0  0  0  0  0  0  0  0  0
   -4.1037    2.0394   -1.1879 H   0  0  0  0  0  0  0  0  0  0  0  0
   -3.1535    2.2244   -2.6549 H   0  0  0  0  0  0  0  0  0  0  0  0
   -0.6208    3.1268   -0.0598 H   0  0  0  0  0  0  0  0  0  0  0  0
   -2.3336    3.4841    0.2228 H   0  0  0  0  0  0  0  0  0  0  0  0
   -1.6170    3.7401   -1.3544 H   0  0  0  0  0  0  0  0  0  0  0  0
  1  2  1  0
  2  3  1  0
  4  3  1  6
  4  5  1  0
  4  6  2  0
  4  7  1  0
  7  8  1  0
  8  9  1  0
  9 10  1  0
 10 11  1  0
 11 12  1  0
 11 13  1  0
 10 14  1  0
 14 15  1  0
 14 16  1  0
  1 17  1  0
  1 18  1  0
  1 19  1  0
  2 20  1  0
  2 21  1  0
  5 22  1  0
  5 23  1  0
  5 24  1  0
  8 25  1  0
  8 26  1  0
  9 27  1  0
  9 28  1  0
 10 29  1  1
 11 30  1  1
 12 31  1  0
 12 32  1  0
 12 33  1  0
 13 34  1  0
 13 35  1  0
 13 36  1  0
 14 37  1  1
 15 38  1  0
 15 39  1  0
 15 40  1  0
 16 41  1  0
 16 42  1  0
 16 43  1  0
M  CHG  1  10   1
M  END
$$$$
