VX
     RDKit          3D

 43 42  0  0  0  0  0  0  0  0999 V2000
    2.4076   -1.0903   -1.9315 C   0  0  0  0  0  0  0  0  0  0  0  0
    3.5282   -0.5434   -1.0715 C   0  0  0  0  0  0  0  0  0  0  0  0
    3.0063   -0.1964    0.2029 O   0  0  0  0  0  0  0  0  0  0  0  0
    2.8324    1.3652    0.5706 P   0  0  1  0  0  0  0  0  0  0  0  0
    4.0395    2.1238    1.6393 C   0  0  0  0  0  0  0  0  0  0  0  0
    1.6868    2.1775    0.0349 O   0  0  0  0  0  0  0  0  0  0  0  0
    1.5355    0.7775    2.4527 S   0  0  0  0  0  0  0  0  0  0  0  0
    0.0082    0.1731    1.6799 C   0  0  0  0  0  0  0  0  0  0  0  0
   -0.9935    1.2584    1.2534 C   0  0  0  0  0  0  0  0  0  0  0  0
   -1.8019    1.9285    2.3893 N   0  0  2  0  0  0  0  0  0  0  0  0
   -1.0635    3.0083    3.2087 C   0  0  1  0  0  0  0  0  0  0  0  0
   -0.3192    3.9798    2.2849 C   0  0  0  0  0  0  0  0  0  0  0  0
   -2.0624    3.8448    4.0162 C   0  0  0  0  0  0  0  0  0  0  0  0
   -2.6533    0.8893    3.1477 C   0  0  1  0  0  0  0  0  0  0  0  0
   -2.0581    0.4747    4.4892 C   0  0  0  0  0  0  0  0  0  0  0  0
   -4.0998    1.3681    3.2616 C   0  0  0  0  0  0  0  0  0  0  0  0
    2.7813   -1.3909   -2.9142 H   0  0  0  0  0  0  0  0  0  0  0  0
    1.9403   -1.9562   -1.4509 H   0  0  0  0  0  0  0  0  0  0  0  0
    1.6220   -0.3399   -2.0670 H   0  0  0  0  0  0  0  0  0  0  0  0
    3.9962    0.3206   -1.5538 H   0  0  0  0  0  0  0  0  0  0  0  0
    4.2983   -1.3063   -0.9238 H   0  0  0  0  0  0  0  0  0  0  0  0
    4.4428    1.3944    2.3473 H   0  0  0  0  0  0  0  0  0  0  0  0
    3.5858    2.9401    2.2087 H   0  0  0  0  0  0  0  0  0  0  0  0
    4.8711    2.5354    1.0611 H   0  0  0  0  0  0  0  0  0  0  0  0
   -0.4520   -0.5571    2.3491 H   0  0  0  0  0  0  0  0  0  0  0  0
    0.3047   -0.3882    0.7866 H   0  0  0  0  0  0  0  0  0  0  0  0
   -0.5515    2.0459    0.6418 H   0  0  0  0  0  0  0  0  0  0  0  0
   -1.7553    0.7903    0.6166 H   0  0  0  0  0  0  0  0  0  0  0  0
   -2.4834    2.4823    1.8540 H   0  0  0  0  0  0  0  0  0  0  0  0
   -0.3638    2.5027    3.8784 H   0  0  0  0  0  0  0  0  0  0  0  0
    0.5389    3.5158    1.7986 H   0  0  0  0  0  0  0  0  0  0  0  0
    0.0810    4.8262    2.8549 H   0  0  0  0  0  0  0  0  0  0  0  0
   -0.9802    4.3835    1.5101 H   0  0  0  0  0  0  0  0  0  0  0  0
   -2.5300    3.2801    4.8231 H   0  0  0  0  0  0  0  0  0  0  0  0
   -1.5558    4.6893    4.4981 H   0  0  0  0  0  0  0  0  0  0  0  0
   -2.8518    4.2551    3.3768 H   0  0  0  0  0  0  0  0  0  0  0  0
   -2.6843    0.0010    2.5054 H   0  0  0  0  0  0  0  0  0  0  0  0
   -2.5960   -0.3981    4.8767 H   0  0  0  0  0  0  0  0  0  0  0  0
   -1.0056    0.1935    4.4071 H   0  0  0  0  0  0  0  0  0  0  0  0
   -2.1396    1.2530    5.2505 H   0  0  0  0  0  0  0  0  0  0  0  0
   -4.2159    2.2245    3.9281 H   0  0  0  0  0  0  0  0  0  0  0  0
   -4.7299    0.5644    3.6590 H   0  0  0  0  0  0  0  0  0  0  0  0
   -4.5019    1.6428    2.2806 H   0  0  0  0  0  0  0  0  0  0  0  0
  1  2  1  0
  2  3  1  0
  4  3  1  6
  4  5  1  0
  4  6  2  0
  4  7  1  0
  7  8  1  0
  8  9  1  0
  9 10  1  0
 10 11  1  0
 11 12  1  0
 11 13  1  0
 10 14  1  0
 14 15  1  0
 14 16  1  0
  1 17  1  0
  1 18  1  0
  1 19  1  0
  2 20  1  0
  2 21  1  0
  5 22  1  0
  5 23  1  0
  5 24  1  0
  8 25  1  0
  8 26  1  0
  9 27  1  0
  9 28  1  0
 10 29  1  6
 11 30  1  6
 12 31  1  0
 12 32  1  0
 12 33  1  0
 13 34  1  0
 13 35  1  0
 13 36  1  0
 14 37  1  1
 15 38  1  0
 15 39  1  0
 15 40  1  0
 16 41  1  0
 16 42  1  0
 16 43  1  0
M  CHG  1  10   1
M  END
$$$$
