VX
     RDKit          3D

 43 42  0  0  0  0  0  0  0  0999 V2000
    4.4464   -0.2816   -1.7549 C   0  0  0  0  0  0  0  0  0  0  0  0
    3.1006   -0.6142   -1.1460 C   0  0  0  0  0  0  0  0  0  0  0  0
    3.0130   -0.1964    0.2075 O   0  0  0  0  0  0  0  0  0  0  0  0
    2.8291    1.3651    0.5684 P   0  0  1  0  0  0  0  0  0  0  0  0
    4.0393    2.1182    1.6375 C   0  0  0  0  0  0  0  0  0  0  0  0
    1.6835    2.1831    0.0344 O   0  0  0  0  0  0  0  0  0  0  0  0
    1.5322    0.7774    2.4505 S   0  0  0  0  0  0  0  0  0  0  0  0
   -0.0750    1.5520    2.1153 C   0  0  0  0  0  0  0  0  0  0  0  0
   -0.7993    0.8333    0.9734 C   0  0  0  0  0  0  0  0  0  0  0  0
   -2.1210    1.5122    0.5664 N   0  0  1  0  0  0  0  0  0  0  0  0
   -3.2209    1.5242    1.6443 C   0  0  1  0  0  0  0  0  0  0  0  0
   -4.5828    1.8144    1.0096 C   0  0  0  0  0  0  0  0  0  0  0  0
   -3.3145    0.1631    2.3443 C   0  0  0  0  0  0  0  0  0  0  0  0
   -1.8320    2.8264   -0.2023 C   0  0  1  0  0  0  0  0  0  0  0  0
   -2.6214    2.8434   -1.5100 C   0  0  0  0  0  0  0  0  0  0  0  0
   -2.0505    4.0834    0.6326 C   0  0  0  0  0  0  0  0  0  0  0  0
    4.5546    0.7989   -1.8871 H   0  0  0  0  0  0  0  0  0  0  0  0
    4.5533   -0.7528   -2.7362 H   0  0  0  0  0  0  0  0  0  0  0  0
    5.2637   -0.6149   -1.1071 H   0  0  0  0  0  0  0  0  0  0  0  0
    2.2846   -0.1739   -1.7278 H   0  0  0  0  0  0  0  0  0  0  0  0
    2.9570   -1.6992   -1.1556 H   0  0  0  0  0  0  0  0  0  0  0  0
    3.5833    2.9302    2.2118 H   0  0  0  0  0  0  0  0  0  0  0  0
    4.4430    1.3873    2.3447 H   0  0  0  0  0  0  0  0  0  0  0  0
    4.8726    2.5379    1.0703 H   0  0  0  0  0  0  0  0  0  0  0  0
   -0.6644    1.5173    3.0354 H   0  0  0  0  0  0  0  0  0  0  0  0
    0.1107    2.6019    1.8819 H   0  0  0  0  0  0  0  0  0  0  0  0
   -0.2019    0.7757    0.0577 H   0  0  0  0  0  0  0  0  0  0  0  0
   -1.0395   -0.2026    1.2352 H   0  0  0  0  0  0  0  0  0  0  0  0
   -2.4816    0.8682   -0.1505 H   0  0  0  0  0  0  0  0  0  0  0  0
   -2.9579    2.2928    2.3769 H   0  0  0  0  0  0  0  0  0  0  0  0
   -4.7986    1.1218    0.1885 H   0  0  0  0  0  0  0  0  0  0  0  0
   -5.3832    1.7092    1.7511 H   0  0  0  0  0  0  0  0  0  0  0  0
   -4.6579    2.8326    0.6260 H   0  0  0  0  0  0  0  0  0  0  0  0
   -4.1719    0.1393    3.0267 H   0  0  0  0  0  0  0  0  0  0  0  0
   -2.4330   -0.0467    2.9563 H   0  0  0  0  0  0  0  0  0  0  0  0
   -3.4406   -0.6520    1.6230 H   0  0  0  0  0  0  0  0  0  0  0  0
   -0.7733    2.7921   -0.4810 H   0  0  0  0  0  0  0  0  0  0  0  0
   -2.3401    3.7158   -2.1100 H   0  0  0  0  0  0  0  0  0  0  0  0
   -3.7007    2.8921   -1.3524 H   0  0  0  0  0  0  0  0  0  0  0  0
   -2.4060    1.9519   -2.1092 H   0  0  0  0  0  0  0  0  0  0  0  0
   -3.1061    4.2860    0.8266 H   0  0  0  0  0  0  0  0  0  0  0  0
   -1.5314    4.0389    1.5931 H   0  0  0  0  0  0  0  0  0  0  0  0
   -1.6593    4.9543    0.0949 H   0  0  0  0  0  0  0  0  0  0  0  0
  1  2  1  0
  2  3  1  0
  4  3  1  6
  4  5  1  0
  4  6  2  0
  4  7  1  0
  7  8  1  0
  8  9  1  0
  9 10  1  0
 10 11  1  0
 11 12  1  0
 11 13  1  0
 10 14  1  0
 14 15  1  0
 14 16  1  0
  1 17  1  0
  1 18  1  0
  1 19  1  0
  2 20  1  0
  2 21  1  0
  5 22  1  0
  5 23  1  0
  5 24  1  0
  8 25  1  0
  8 26  1  0
  9 27  1  0
  9 28  1  0
 10 29  1  1
 11 30  1  6
 12 31  1  0
 12 32  1  0
 12 33  1  0
 13 34  1  0
 13 35  1  0
 13 36  1  0
 14 37  1  1
 15 38  1  0
 15 39  1  0
 15 40  1  0
 16 41  1  0
 16 42  1  0
 16 43  1  0
M  CHG  1  10   1
M  END
$$$$
