VX
     RDKit          3D

 43 42  0  0  0  0  0  0  0  0999 V2000
    3.3142   -1.9574   -1.3831 C   0  0  0  0  0  0  0  0  0  0  0  0
    3.6687   -0.5327   -1.0110 C   0  0  0  0  0  0  0  0  0  0  0  0
    2.9884   -0.1984    0.1900 O   0  0  0  0  0  0  0  0  0  0  0  0
    2.8440    1.3649    0.5786 P   0  0  1  0  0  0  0  0  0  0  0  0
    4.0400    2.1391    1.6445 C   0  0  0  0  0  0  0  0  0  0  0  0
    1.6925    2.1645    0.0348 O   0  0  0  0  0  0  0  0  0  0  0  0
    1.5471    0.7772    2.4607 S   0  0  0  0  0  0  0  0  0  0  0  0
   -0.1534    0.8303    1.8305 C   0  0  0  0  0  0  0  0  0  0  0  0
   -0.3595   -0.1384    0.6572 C   0  0  0  0  0  0  0  0  0  0  0  0
   -1.7874   -0.0263    0.1010 N   0  0  1  0  0  0  0  0  0  0  0  0
   -1.8915    0.4262   -1.3690 C   0  0  2  0  0  0  0  0  0  0  0  0
   -0.9014   -0.2738   -2.2985 C   0  0  0  0  0  0  0  0  0  0  0  0
   -1.7279    1.9445   -1.4286 C   0  0  0  0  0  0  0  0  0  0  0  0
   -2.7473   -1.1680    0.4648 C   0  0  2  0  0  0  0  0  0  0  0  0
   -2.8532   -1.3038    1.9826 C   0  0  0  0  0  0  0  0  0  0  0  0
   -2.3755   -2.4877   -0.1983 C   0  0  0  0  0  0  0  0  0  0  0  0
    3.8247   -2.2598   -2.3016 H   0  0  0  0  0  0  0  0  0  0  0  0
    2.2336   -2.0592   -1.5290 H   0  0  0  0  0  0  0  0  0  0  0  0
    3.5933   -2.6472   -0.5798 H   0  0  0  0  0  0  0  0  0  0  0  0
    4.7464   -0.4418   -0.8476 H   0  0  0  0  0  0  0  0  0  0  0  0
    3.3715    0.1484   -1.8143 H   0  0  0  0  0  0  0  0  0  0  0  0
    4.8631    2.5659    1.0650 H   0  0  0  0  0  0  0  0  0  0  0  0
    4.4566    1.4160    2.3515 H   0  0  0  0  0  0  0  0  0  0  0  0
    3.5758    2.9481    2.2158 H   0  0  0  0  0  0  0  0  0  0  0  0
   -0.8240    0.5848    2.6584 H   0  0  0  0  0  0  0  0  0  0  0  0
   -0.3752    1.8575    1.5237 H   0  0  0  0  0  0  0  0  0  0  0  0
   -0.1906   -1.1750    0.9603 H   0  0  0  0  0  0  0  0  0  0  0  0
    0.3308    0.0885   -0.1521 H   0  0  0  0  0  0  0  0  0  0  0  0
   -2.2027    0.7678    0.6052 H   0  0  0  0  0  0  0  0  0  0  0  0
   -2.9123    0.1841   -1.6864 H   0  0  0  0  0  0  0  0  0  0  0  0
   -0.8132   -1.3438   -2.1041 H   0  0  0  0  0  0  0  0  0  0  0  0
   -1.2287   -0.1545   -3.3377 H   0  0  0  0  0  0  0  0  0  0  0  0
    0.1014    0.1628   -2.2417 H   0  0  0  0  0  0  0  0  0  0  0  0
   -0.7395    2.2602   -1.0820 H   0  0  0  0  0  0  0  0  0  0  0  0
   -1.8524    2.3026   -2.4562 H   0  0  0  0  0  0  0  0  0  0  0  0
   -2.4802    2.4467   -0.8110 H   0  0  0  0  0  0  0  0  0  0  0  0
   -3.7309   -0.8499    0.0975 H   0  0  0  0  0  0  0  0  0  0  0  0
   -3.1080   -0.3463    2.4485 H   0  0  0  0  0  0  0  0  0  0  0  0
   -1.9257   -1.6730    2.4307 H   0  0  0  0  0  0  0  0  0  0  0  0
   -3.6448   -2.0148    2.2438 H   0  0  0  0  0  0  0  0  0  0  0  0
   -3.0262   -3.2912    0.1652 H   0  0  0  0  0  0  0  0  0  0  0  0
   -1.3434   -2.7868    0.0033 H   0  0  0  0  0  0  0  0  0  0  0  0
   -2.5198   -2.4402   -1.2812 H   0  0  0  0  0  0  0  0  0  0  0  0
  1  2  1  0
  2  3  1  0
  4  3  1  6
  4  5  1  0
  4  6  2  0
  4  7  1  0
  7  8  1  0
  8  9  1  0
  9 10  1  0
 10 11  1  0
 11 12  1  0
 11 13  1  0
 10 14  1  0
 14 15  1  0
 14 16  1  0
  1 17  1  0
  1 18  1  0
  1 19  1  0
  2 20  1  0
  2 21  1  0
  5 22  1  0
  5 23  1  0
  5 24  1  0
  8 25  1  0
  8 26  1  0
  9 27  1  0
  9 28  1  0
 10 29  1  6
 11 30  1  6
 12 31  1  0
 12 32  1  0
 12 33  1  0
 13 34  1  0
 13 35  1  0
 13 36  1  0
 14 37  1  6
 15 38  1  0
 15 39  1  0
 15 40  1  0
 16 41  1  0
 16 42  1  0
 16 43  1  0
M  CHG  1  10   1
M  END
$$$$
