VX
     RDKit          3D

 43 42  0  0  0  0  0  0  0  0999 V2000
    4.8382   -1.7067    0.4120 C   0  0  0  0  0  0  0  0  0  0  0  0
    3.6298   -1.0986    1.0931 C   0  0  0  0  0  0  0  0  0  0  0  0
    3.0002   -0.1974    0.1984 O   0  0  0  0  0  0  0  0  0  0  0  0
    2.8356    1.3648    0.5728 P   0  0  1  0  0  0  0  0  0  0  0  0
    4.0411    2.1296    1.6423 C   0  0  0  0  0  0  0  0  0  0  0  0
    1.6880    2.1731    0.0344 O   0  0  0  0  0  0  0  0  0  0  0  0
    1.5387    0.7771    2.4549 S   0  0  0  0  0  0  0  0  0  0  0  0
   -0.0882    0.4951    1.6984 C   0  0  0  0  0  0  0  0  0  0  0  0
   -1.1639    0.3551    2.7717 C   0  0  0  0  0  0  0  0  0  0  0  0
   -2.5936    0.3269    2.1938 N   0  0  1  0  0  0  0  0  0  0  0  0
   -3.0476    1.6362    1.5054 C   0  0  1  0  0  0  0  0  0  0  0  0
   -4.5709    1.6586    1.3655 C   0  0  0  0  0  0  0  0  0  0  0  0
   -2.6323    2.8595    2.3307 C   0  0  0  0  0  0  0  0  0  0  0  0
   -2.8563   -1.0055    1.4583 C   0  0  1  0  0  0  0  0  0  0  0  0
   -4.1821   -1.6066    1.9201 C   0  0  0  0  0  0  0  0  0  0  0  0
   -2.7530   -0.8929   -0.0587 C   0  0  0  0  0  0  0  0  0  0  0  0
    5.3329   -2.4290    1.0673 H   0  0  0  0  0  0  0  0  0  0  0  0
    4.5456   -2.2125   -0.5140 H   0  0  0  0  0  0  0  0  0  0  0  0
    5.5585   -0.9298    0.1361 H   0  0  0  0  0  0  0  0  0  0  0  0
    2.9080   -1.8810    1.3466 H   0  0  0  0  0  0  0  0  0  0  0  0
    3.9244   -0.6011    2.0217 H   0  0  0  0  0  0  0  0  0  0  0  0
    4.8908    2.4940    1.0579 H   0  0  0  0  0  0  0  0  0  0  0  0
    3.5959    2.9822    2.1633 H   0  0  0  0  0  0  0  0  0  0  0  0
    4.4159    1.4337    2.3971 H   0  0  0  0  0  0  0  0  0  0  0  0
   -0.0201   -0.4100    1.0890 H   0  0  0  0  0  0  0  0  0  0  0  0
   -0.3099    1.3354    1.0374 H   0  0  0  0  0  0  0  0  0  0  0  0
   -1.0418   -0.5754    3.3398 H   0  0  0  0  0  0  0  0  0  0  0  0
   -1.1370    1.1677    3.5044 H   0  0  0  0  0  0  0  0  0  0  0  0
   -3.1731    0.2824    3.0429 H   0  0  0  0  0  0  0  0  0  0  0  0
   -2.5670    1.6798    0.5236 H   0  0  0  0  0  0  0  0  0  0  0  0
   -5.0655    1.4744    2.3255 H   0  0  0  0  0  0  0  0  0  0  0  0
   -4.9099    2.6348    1.0000 H   0  0  0  0  0  0  0  0  0  0  0  0
   -4.9330    0.9246    0.6441 H   0  0  0  0  0  0  0  0  0  0  0  0
   -3.0578    3.7749    1.9037 H   0  0  0  0  0  0  0  0  0  0  0  0
   -1.5477    3.0014    2.3348 H   0  0  0  0  0  0  0  0  0  0  0  0
   -2.9798    2.7826    3.3668 H   0  0  0  0  0  0  0  0  0  0  0  0
   -2.0732   -1.6959    1.7941 H   0  0  0  0  0  0  0  0  0  0  0  0
   -5.0479   -1.0222    1.6035 H   0  0  0  0  0  0  0  0  0  0  0  0
   -4.3028   -2.6136    1.5053 H   0  0  0  0  0  0  0  0  0  0  0  0
   -4.2135   -1.6971    3.0113 H   0  0  0  0  0  0  0  0  0  0  0  0
   -2.7825   -1.8927   -0.5068 H   0  0  0  0  0  0  0  0  0  0  0  0
   -1.8154   -0.4269   -0.3730 H   0  0  0  0  0  0  0  0  0  0  0  0
   -3.5785   -0.3282   -0.4983 H   0  0  0  0  0  0  0  0  0  0  0  0
  1  2  1  0
  2  3  1  0
  4  3  1  6
  4  5  1  0
  4  6  2  0
  4  7  1  0
  7  8  1  0
  8  9  1  0
  9 10  1  0
 10 11  1  0
 11 12  1  0
 11 13  1  0
 10 14  1  0
 14 15  1  0
 14 16  1  0
  1 17  1  0
  1 18  1  0
  1 19  1  0
  2 20  1  0
  2 21  1  0
  5 22  1  0
  5 23  1  0
  5 24  1  0
  8 25  1  0
  8 26  1  0
  9 27  1  0
  9 28  1  0
 10 29  1  6
 11 30  1  1
 12 31  1  0
 12 32  1  0
 12 33  1  0
 13 34  1  0
 13 35  1  0
 13 36  1  0
 14 37  1  6
 15 38  1  0
 15 39  1  0
 15 40  1  0
 16 41  1  0
 16 42  1  0
 16 43  1  0
M  CHG  1  10   1
M  END
$$$$
