VX
     RDKit          3D

 43 42  0  0  0  0  0  0  0  0999 V2000
    4.7813   -1.7625    0.4129 C   0  0  0  0  0  0  0  0  0  0  0  0
    3.5988   -1.1080    1.0961 C   0  0  0  0  0  0  0  0  0  0  0  0
    2.9932   -0.1963    0.1939 O   0  0  0  0  0  0  0  0  0  0  0  0
    2.8410    1.3637    0.5761 P   0  0  1  0  0  0  0  0  0  0  0  0
    4.0415    2.1347    1.6441 C   0  0  0  0  0  0  0  0  0  0  0  0
    1.6893    2.1680    0.0336 O   0  0  0  0  0  0  0  0  0  0  0  0
    1.5441    0.7760    2.4582 S   0  0  0  0  0  0  0  0  0  0  0  0
   -0.0952    0.5188    1.7085 C   0  0  0  0  0  0  0  0  0  0  0  0
   -0.8838    1.8291    1.6223 C   0  0  0  0  0  0  0  0  0  0  0  0
   -1.9829    1.8561    0.5422 N   0  0  2  0  0  0  0  0  0  0  0  0
   -3.1137    0.8300    0.6883 C   0  0  1  0  0  0  0  0  0  0  0  0
   -2.6899   -0.5966    0.3556 C   0  0  0  0  0  0  0  0  0  0  0  0
   -3.7473    0.9245    2.0759 C   0  0  0  0  0  0  0  0  0  0  0  0
   -1.4079    2.0818   -0.8848 C   0  0  2  0  0  0  0  0  0  0  0  0
   -0.9335    3.5370   -1.0109 C   0  0  0  0  0  0  0  0  0  0  0  0
   -2.4582    1.8514   -1.9765 C   0  0  0  0  0  0  0  0  0  0  0  0
    5.2582   -2.4925    1.0727 H   0  0  0  0  0  0  0  0  0  0  0  0
    4.4652   -2.2693   -0.5049 H   0  0  0  0  0  0  0  0  0  0  0  0
    5.5235   -1.0118    0.1223 H   0  0  0  0  0  0  0  0  0  0  0  0
    3.9185   -0.6085    2.0152 H   0  0  0  0  0  0  0  0  0  0  0  0
    2.8533   -1.8627    1.3646 H   0  0  0  0  0  0  0  0  0  0  0  0
    4.8860    2.5095    1.0590 H   0  0  0  0  0  0  0  0  0  0  0  0
    3.5906    2.9805    2.1712 H   0  0  0  0  0  0  0  0  0  0  0  0
    4.4253    1.4379    2.3936 H   0  0  0  0  0  0  0  0  0  0  0  0
   -0.6232   -0.1903    2.3512 H   0  0  0  0  0  0  0  0  0  0  0  0
    0.0522    0.0537    0.7311 H   0  0  0  0  0  0  0  0  0  0  0  0
   -0.2400    2.6896    1.4332 H   0  0  0  0  0  0  0  0  0  0  0  0
   -1.3820    2.0373    2.5756 H   0  0  0  0  0  0  0  0  0  0  0  0
   -2.4641    2.7458    0.7295 H   0  0  0  0  0  0  0  0  0  0  0  0
   -3.8844    1.1465   -0.0220 H   0  0  0  0  0  0  0  0  0  0  0  0
   -2.0168   -0.6533   -0.5034 H   0  0  0  0  0  0  0  0  0  0  0  0
   -3.5774   -1.1932    0.1144 H   0  0  0  0  0  0  0  0  0  0  0  0
   -2.2101   -1.0973    1.1999 H   0  0  0  0  0  0  0  0  0  0  0  0
   -4.0182    1.9575    2.3185 H   0  0  0  0  0  0  0  0  0  0  0  0
   -4.6637    0.3249    2.1126 H   0  0  0  0  0  0  0  0  0  0  0  0
   -3.0833    0.5474    2.8600 H   0  0  0  0  0  0  0  0  0  0  0  0
   -0.5803    1.3794   -1.0149 H   0  0  0  0  0  0  0  0  0  0  0  0
   -0.5142    3.7147   -2.0077 H   0  0  0  0  0  0  0  0  0  0  0  0
   -1.7650    4.2377   -0.8719 H   0  0  0  0  0  0  0  0  0  0  0  0
   -0.1578    3.8039   -0.2920 H   0  0  0  0  0  0  0  0  0  0  0  0
   -2.7821    0.8094   -2.0330 H   0  0  0  0  0  0  0  0  0  0  0  0
   -2.0420    2.0962   -2.9607 H   0  0  0  0  0  0  0  0  0  0  0  0
   -3.3404    2.4837   -1.8277 H   0  0  0  0  0  0  0  0  0  0  0  0
  1  2  1  0
  2  3  1  0
  4  3  1  6
  4  5  1  0
  4  6  2  0
  4  7  1  0
  7  8  1  0
  8  9  1  0
  9 10  1  0
 10 11  1  0
 11 12  1  0
 11 13  1  0
 10 14  1  0
 14 15  1  0
 14 16  1  0
  1 17  1  0
  1 18  1  0
  1 19  1  0
  2 20  1  0
  2 21  1  0
  5 22  1  0
  5 23  1  0
  5 24  1  0
  8 25  1  0
  8 26  1  0
  9 27  1  0
  9 28  1  0
 10 29  1  1
 11 30  1  1
 12 31  1  0
 12 32  1  0
 12 33  1  0
 13 34  1  0
 13 35  1  0
 13 36  1  0
 14 37  1  6
 15 38  1  0
 15 39  1  0
 15 40  1  0
 16 41  1  0
 16 42  1  0
 16 43  1  0
M  CHG  1  10   1
M  END
$$$$
