VX
     RDKit          3D

 43 42  0  0  0  0  0  0  0  0999 V2000
    3.3712   -2.4899    0.7267 C   0  0  0  0  0  0  0  0  0  0  0  0
    3.7677   -1.0575    1.0195 C   0  0  0  0  0  0  0  0  0  0  0  0
    2.9979   -0.1977    0.1967 O   0  0  0  0  0  0  0  0  0  0  0  0
    2.8372    1.3648    0.5738 P   0  0  1  0  0  0  0  0  0  0  0  0
    4.0410    2.1315    1.6428 C   0  0  0  0  0  0  0  0  0  0  0  0
    1.6889    2.1715    0.0345 O   0  0  0  0  0  0  0  0  0  0  0  0
    1.5403    0.7771    2.4559 S   0  0  0  0  0  0  0  0  0  0  0  0
   -0.1173    0.6847    1.7268 C   0  0  0  0  0  0  0  0  0  0  0  0
   -1.1616    0.3080    2.7741 C   0  0  0  0  0  0  0  0  0  0  0  0
   -2.5781    0.3063    2.1309 N   0  0  1  0  0  0  0  0  0  0  0  0
   -3.1250   -1.1317    2.1157 C   0  0  1  0  0  0  0  0  0  0  0  0
   -3.7293   -1.5253    3.4576 C   0  0  0  0  0  0  0  0  0  0  0  0
   -4.0519   -1.3749    0.9282 C   0  0  0  0  0  0  0  0  0  0  0  0
   -3.4603    1.4403    2.6974 C   0  0  2  0  0  0  0  0  0  0  0  0
   -4.8450    1.4651    2.0560 C   0  0  0  0  0  0  0  0  0  0  0  0
   -2.7931    2.7950    2.4163 C   0  0  0  0  0  0  0  0  0  0  0  0
    3.9534   -3.1881    1.3346 H   0  0  0  0  0  0  0  0  0  0  0  0
    3.5280   -2.7258   -0.3309 H   0  0  0  0  0  0  0  0  0  0  0  0
    2.3069   -2.6442    0.9331 H   0  0  0  0  0  0  0  0  0  0  0  0
    4.8279   -0.9088    0.7938 H   0  0  0  0  0  0  0  0  0  0  0  0
    3.5958   -0.8305    2.0756 H   0  0  0  0  0  0  0  0  0  0  0  0
    4.4064    1.4343    2.4017 H   0  0  0  0  0  0  0  0  0  0  0  0
    4.8956    2.4889    1.0614 H   0  0  0  0  0  0  0  0  0  0  0  0
    3.5978    2.9879    2.1589 H   0  0  0  0  0  0  0  0  0  0  0  0
   -0.3564    1.6565    1.2861 H   0  0  0  0  0  0  0  0  0  0  0  0
   -0.1038   -0.0565    0.9209 H   0  0  0  0  0  0  0  0  0  0  0  0
   -0.9637   -0.6917    3.1766 H   0  0  0  0  0  0  0  0  0  0  0  0
   -1.1764    0.9941    3.6268 H   0  0  0  0  0  0  0  0  0  0  0  0
   -2.4473    0.5497    1.1390 H   0  0  0  0  0  0  0  0  0  0  0  0
   -2.2506   -1.7686    1.9291 H   0  0  0  0  0  0  0  0  0  0  0  0
   -3.0304   -1.3454    4.2807 H   0  0  0  0  0  0  0  0  0  0  0  0
   -4.6542   -0.9856    3.6758 H   0  0  0  0  0  0  0  0  0  0  0  0
   -3.9713   -2.5938    3.4607 H   0  0  0  0  0  0  0  0  0  0  0  0
   -3.6400   -0.9548    0.0049 H   0  0  0  0  0  0  0  0  0  0  0  0
   -4.1706   -2.4534    0.7706 H   0  0  0  0  0  0  0  0  0  0  0  0
   -5.0568   -0.9766    1.0746 H   0  0  0  0  0  0  0  0  0  0  0  0
   -3.5415    1.2758    3.7774 H   0  0  0  0  0  0  0  0  0  0  0  0
   -5.3857    2.3752    2.3413 H   0  0  0  0  0  0  0  0  0  0  0  0
   -5.4671    0.6349    2.3951 H   0  0  0  0  0  0  0  0  0  0  0  0
   -4.7857    1.4483    0.9626 H   0  0  0  0  0  0  0  0  0  0  0  0
   -2.6135    2.9353    1.3446 H   0  0  0  0  0  0  0  0  0  0  0  0
   -3.4337    3.6164    2.7572 H   0  0  0  0  0  0  0  0  0  0  0  0
   -1.8403    2.9121    2.9392 H   0  0  0  0  0  0  0  0  0  0  0  0
  1  2  1  0
  2  3  1  0
  4  3  1  6
  4  5  1  0
  4  6  2  0
  4  7  1  0
  7  8  1  0
  8  9  1  0
  9 10  1  0
 10 11  1  0
 11 12  1  0
 11 13  1  0
 10 14  1  0
 14 15  1  0
 14 16  1  0
  1 17  1  0
  1 18  1  0
  1 19  1  0
  2 20  1  0
  2 21  1  0
  5 22  1  0
  5 23  1  0
  5 24  1  0
  8 25  1  0
  8 26  1  0
  9 27  1  0
  9 28  1  0
 10 29  1  1
 11 30  1  1
 12 31  1  0
 12 32  1  0
 12 33  1  0
 13 34  1  0
 13 35  1  0
 13 36  1  0
 14 37  1  1
 15 38  1  0
 15 39  1  0
 15 40  1  0
 16 41  1  0
 16 42  1  0
 16 43  1  0
M  CHG  1  10   1
M  END
$$$$
