VX
     RDKit          3D

 43 42  0  0  0  0  0  0  0  0999 V2000
    4.4282   -0.2763   -1.7662 C   0  0  0  0  0  0  0  0  0  0  0  0
    3.0914   -0.6161   -1.1414 C   0  0  0  0  0  0  0  0  0  0  0  0
    3.0206   -0.1974    0.2124 O   0  0  0  0  0  0  0  0  0  0  0  0
    2.8234    1.3661    0.5648 P   0  0  1  0  0  0  0  0  0  0  0  0
    4.0391    2.1126    1.6355 C   0  0  0  0  0  0  0  0  0  0  0  0
    1.6818    2.1888    0.0350 O   0  0  0  0  0  0  0  0  0  0  0  0
    1.5265    0.7784    2.4469 S   0  0  0  0  0  0  0  0  0  0  0  0
   -0.1641    1.0295    1.8435 C   0  0  0  0  0  0  0  0  0  0  0  0
   -1.1844    0.5492    2.8773 C   0  0  0  0  0  0  0  0  0  0  0  0
   -2.6019    1.0527    2.5626 N   0  0  2  0  0  0  0  0  0  0  0  0
   -3.5531    1.0418    3.7759 C   0  0  2  0  0  0  0  0  0  0  0  0
   -3.3511    2.3343    4.5674 C   0  0  0  0  0  0  0  0  0  0  0  0
   -3.3720   -0.1871    4.6656 C   0  0  0  0  0  0  0  0  0  0  0  0
   -3.1906    0.5074    1.2522 C   0  0  1  0  0  0  0  0  0  0  0  0
   -3.6931   -0.9217    1.3888 C   0  0  0  0  0  0  0  0  0  0  0  0
   -4.2753    1.4553    0.7376 C   0  0  0  0  0  0  0  0  0  0  0  0
    4.5250   -0.7516   -2.7464 H   0  0  0  0  0  0  0  0  0  0  0  0
    4.5227    0.8053   -1.9076 H   0  0  0  0  0  0  0  0  0  0  0  0
    5.2555   -0.6022   -1.1276 H   0  0  0  0  0  0  0  0  0  0  0  0
    2.9498   -1.7011   -1.1509 H   0  0  0  0  0  0  0  0  0  0  0  0
    2.2667   -0.1801   -1.7136 H   0  0  0  0  0  0  0  0  0  0  0  0
    3.5781    2.9006    2.2380 H   0  0  0  0  0  0  0  0  0  0  0  0
    4.8573    2.5601    1.0659 H   0  0  0  0  0  0  0  0  0  0  0  0
    4.4635    1.3666    2.3131 H   0  0  0  0  0  0  0  0  0  0  0  0
   -0.2709    0.4792    0.9053 H   0  0  0  0  0  0  0  0  0  0  0  0
   -0.2994    2.0963    1.6381 H   0  0  0  0  0  0  0  0  0  0  0  0
   -1.2235   -0.5430    2.9340 H   0  0  0  0  0  0  0  0  0  0  0  0
   -0.9309    0.9571    3.8610 H   0  0  0  0  0  0  0  0  0  0  0  0
   -2.4647    2.0528    2.3622 H   0  0  0  0  0  0  0  0  0  0  0  0
   -4.5741    1.0471    3.3844 H   0  0  0  0  0  0  0  0  0  0  0  0
   -4.0402    2.3708    5.4181 H   0  0  0  0  0  0  0  0  0  0  0  0
   -3.5532    3.2114    3.9432 H   0  0  0  0  0  0  0  0  0  0  0  0
   -2.3327    2.4223    4.9586 H   0  0  0  0  0  0  0  0  0  0  0  0
   -3.4264   -1.1221    4.1023 H   0  0  0  0  0  0  0  0  0  0  0  0
   -2.4205   -0.1727    5.2071 H   0  0  0  0  0  0  0  0  0  0  0  0
   -4.1679   -0.2174    5.4189 H   0  0  0  0  0  0  0  0  0  0  0  0
   -2.3800    0.5291    0.5180 H   0  0  0  0  0  0  0  0  0  0  0  0
   -4.0184   -1.3040    0.4135 H   0  0  0  0  0  0  0  0  0  0  0  0
   -4.5564   -0.9918    2.0586 H   0  0  0  0  0  0  0  0  0  0  0  0
   -2.9100   -1.5927    1.7544 H   0  0  0  0  0  0  0  0  0  0  0  0
   -3.9092    2.4858    0.6921 H   0  0  0  0  0  0  0  0  0  0  0  0
   -5.1771    1.4385    1.3554 H   0  0  0  0  0  0  0  0  0  0  0  0
   -4.5760    1.1666   -0.2762 H   0  0  0  0  0  0  0  0  0  0  0  0
  1  2  1  0
  2  3  1  0
  4  3  1  6
  4  5  1  0
  4  6  2  0
  4  7  1  0
  7  8  1  0
  8  9  1  0
  9 10  1  0
 10 11  1  0
 11 12  1  0
 11 13  1  0
 10 14  1  0
 14 15  1  0
 14 16  1  0
  1 17  1  0
  1 18  1  0
  1 19  1  0
  2 20  1  0
  2 21  1  0
  5 22  1  0
  5 23  1  0
  5 24  1  0
  8 25  1  0
  8 26  1  0
  9 27  1  0
  9 28  1  0
 10 29  1  6
 11 30  1  6
 12 31  1  0
 12 32  1  0
 12 33  1  0
 13 34  1  0
 13 35  1  0
 13 36  1  0
 14 37  1  1
 15 38  1  0
 15 39  1  0
 15 40  1  0
 16 41  1  0
 16 42  1  0
 16 43  1  0
M  CHG  1  10   1
M  END
$$$$
