VX
     RDKit          3D

 43 42  0  0  0  0  0  0  0  0999 V2000
    4.8185   -1.7208    0.3700 C   0  0  0  0  0  0  0  0  0  0  0  0
    3.6248   -1.1080    1.0723 C   0  0  0  0  0  0  0  0  0  0  0  0
    2.9882   -0.1970    0.1902 O   0  0  0  0  0  0  0  0  0  0  0  0
    2.8444    1.3636    0.5784 P   0  0  1  0  0  0  0  0  0  0  0  0
    4.0416    2.1390    1.6456 C   0  0  0  0  0  0  0  0  0  0  0  0
    1.6908    2.1644    0.0336 O   0  0  0  0  0  0  0  0  0  0  0  0
    1.5475    0.7759    2.4605 S   0  0  0  0  0  0  0  0  0  0  0  0
   -0.1413    1.2109    1.9502 C   0  0  0  0  0  0  0  0  0  0  0  0
   -0.6035    0.3787    0.7435 C   0  0  0  0  0  0  0  0  0  0  0  0
   -1.9242    0.9431    0.1615 N   0  0  1  0  0  0  0  0  0  0  0  0
   -1.5714    2.1186   -0.7885 C   0  0  2  0  0  0  0  0  0  0  0  0
   -2.6364    3.2103   -0.7339 C   0  0  0  0  0  0  0  0  0  0  0  0
   -1.2366    1.6530   -2.2010 C   0  0  0  0  0  0  0  0  0  0  0  0
   -2.8607   -0.1627   -0.3734 C   0  0  1  0  0  0  0  0  0  0  0  0
   -3.2273   -1.1324    0.7621 C   0  0  0  0  0  0  0  0  0  0  0  0
   -4.1702    0.4196   -0.9056 C   0  0  0  0  0  0  0  0  0  0  0  0
    5.5400   -0.9473    0.0874 H   0  0  0  0  0  0  0  0  0  0  0  0
    4.5086   -2.2196   -0.5541 H   0  0  0  0  0  0  0  0  0  0  0  0
    5.3179   -2.4498    1.0141 H   0  0  0  0  0  0  0  0  0  0  0  0
    2.9008   -1.8863    1.3322 H   0  0  0  0  0  0  0  0  0  0  0  0
    3.9366   -0.6168    1.9985 H   0  0  0  0  0  0  0  0  0  0  0  0
    4.8903    2.5066    1.0620 H   0  0  0  0  0  0  0  0  0  0  0  0
    3.5906    2.9907    2.1630 H   0  0  0  0  0  0  0  0  0  0  0  0
    4.4196    1.4483    2.4036 H   0  0  0  0  0  0  0  0  0  0  0  0
   -0.1662    2.2842    1.7440 H   0  0  0  0  0  0  0  0  0  0  0  0
   -0.8118    1.0320    2.7974 H   0  0  0  0  0  0  0  0  0  0  0  0
    0.1146    0.3360   -0.0783 H   0  0  0  0  0  0  0  0  0  0  0  0
   -0.7711   -0.6467    1.0719 H   0  0  0  0  0  0  0  0  0  0  0  0
   -2.4303    1.3615    0.9524 H   0  0  0  0  0  0  0  0  0  0  0  0
   -0.6714    2.5761   -0.3688 H   0  0  0  0  0  0  0  0  0  0  0  0
   -2.9088    3.4494    0.2994 H   0  0  0  0  0  0  0  0  0  0  0  0
   -3.5453    2.9578   -1.2812 H   0  0  0  0  0  0  0  0  0  0  0  0
   -2.2464    4.1283   -1.1886 H   0  0  0  0  0  0  0  0  0  0  0  0
   -0.8466    2.4933   -2.7864 H   0  0  0  0  0  0  0  0  0  0  0  0
   -2.1053    1.2681   -2.7394 H   0  0  0  0  0  0  0  0  0  0  0  0
   -0.4678    0.8745   -2.1997 H   0  0  0  0  0  0  0  0  0  0  0  0
   -2.3197   -0.6933   -1.1640 H   0  0  0  0  0  0  0  0  0  0  0  0
   -4.0463   -1.7950    0.4589 H   0  0  0  0  0  0  0  0  0  0  0  0
   -2.4004   -1.7946    1.0301 H   0  0  0  0  0  0  0  0  0  0  0  0
   -3.5481   -0.5953    1.6612 H   0  0  0  0  0  0  0  0  0  0  0  0
   -4.6421    1.0846   -0.1744 H   0  0  0  0  0  0  0  0  0  0  0  0
   -4.0339    0.9610   -1.8427 H   0  0  0  0  0  0  0  0  0  0  0  0
   -4.8853   -0.3802   -1.1316 H   0  0  0  0  0  0  0  0  0  0  0  0
  1  2  1  0
  2  3  1  0
  4  3  1  6
  4  5  1  0
  4  6  2  0
  4  7  1  0
  7  8  1  0
  8  9  1  0
  9 10  1  0
 10 11  1  0
 11 12  1  0
 11 13  1  0
 10 14  1  0
 14 15  1  0
 14 16  1  0
  1 17  1  0
  1 18  1  0
  1 19  1  0
  2 20  1  0
  2 21  1  0
  5 22  1  0
  5 23  1  0
  5 24  1  0
  8 25  1  0
  8 26  1  0
  9 27  1  0
  9 28  1  0
 10 29  1  6
 11 30  1  1
 12 31  1  0
 12 32  1  0
 12 33  1  0
 13 34  1  0
 13 35  1  0
 13 36  1  0
 14 37  1  1
 15 38  1  0
 15 39  1  0
 15 40  1  0
 16 41  1  0
 16 42  1  0
 16 43  1  0
M  CHG  1  10   1
M  END
$$$$
