VX
     RDKit          3D

 43 42  0  0  0  0  0  0  0  0999 V2000
    3.6990   -2.0326   -1.1493 C   0  0  0  0  0  0  0  0  0  0  0  0
    3.5226   -0.5288   -1.0807 C   0  0  0  0  0  0  0  0  0  0  0  0
    2.9950   -0.1972    0.1948 O   0  0  0  0  0  0  0  0  0  0  0  0
    2.8395    1.3651    0.5756 P   0  0  1  0  0  0  0  0  0  0  0  0
    4.0393    2.1332    1.6422 C   0  0  0  0  0  0  0  0  0  0  0  0
    1.6911    2.1689    0.0352 O   0  0  0  0  0  0  0  0  0  0  0  0
    1.5427    0.7774    2.4577 S   0  0  0  0  0  0  0  0  0  0  0  0
    0.1026    1.8917    2.3888 C   0  0  0  0  0  0  0  0  0  0  0  0
   -0.8819    1.5588    1.2541 C   0  0  0  0  0  0  0  0  0  0  0  0
   -1.0489    0.0280    1.0634 N   0  0  2  0  0  0  0  0  0  0  0  0
   -0.7250   -0.3408   -0.3987 C   0  0  2  0  0  0  0  0  0  0  0  0
   -1.9153   -0.1055   -1.3184 C   0  0  0  0  0  0  0  0  0  0  0  0
   -0.1233   -1.7383   -0.5153 C   0  0  0  0  0  0  0  0  0  0  0  0
   -2.3524   -0.5070    1.6829 C   0  0  1  0  0  0  0  0  0  0  0  0
   -2.4535   -2.0261    1.5715 C   0  0  0  0  0  0  0  0  0  0  0  0
   -2.4207   -0.1378    3.1698 C   0  0  0  0  0  0  0  0  0  0  0  0
    4.3858   -2.3735   -0.3659 H   0  0  0  0  0  0  0  0  0  0  0  0
    2.7430   -2.5421   -0.9809 H   0  0  0  0  0  0  0  0  0  0  0  0
    4.0949   -2.3359   -2.1226 H   0  0  0  0  0  0  0  0  0  0  0  0
    2.8236   -0.1950   -1.8554 H   0  0  0  0  0  0  0  0  0  0  0  0
    4.4847   -0.0293   -1.2291 H   0  0  0  0  0  0  0  0  0  0  0  0
    3.5772    2.9430    2.2143 H   0  0  0  0  0  0  0  0  0  0  0  0
    4.8657    2.5571    1.0662 H   0  0  0  0  0  0  0  0  0  0  0  0
    4.4506    1.4070    2.3486 H   0  0  0  0  0  0  0  0  0  0  0  0
    0.4472    2.9263    2.2931 H   0  0  0  0  0  0  0  0  0  0  0  0
   -0.4021    1.8177    3.3557 H   0  0  0  0  0  0  0  0  0  0  0  0
   -0.5420    1.9939    0.3112 H   0  0  0  0  0  0  0  0  0  0  0  0
   -1.8718    1.9889    1.4385 H   0  0  0  0  0  0  0  0  0  0  0  0
   -0.2776   -0.3827    1.6151 H   0  0  0  0  0  0  0  0  0  0  0  0
    0.0807    0.3354   -0.7029 H   0  0  0  0  0  0  0  0  0  0  0  0
   -2.3053    0.9114   -1.2109 H   0  0  0  0  0  0  0  0  0  0  0  0
   -2.7333   -0.8064   -1.1331 H   0  0  0  0  0  0  0  0  0  0  0  0
   -1.6134   -0.2326   -2.3635 H   0  0  0  0  0  0  0  0  0  0  0  0
   -0.8721   -2.5314   -0.5002 H   0  0  0  0  0  0  0  0  0  0  0  0
    0.6097   -1.9311    0.2747 H   0  0  0  0  0  0  0  0  0  0  0  0
    0.3996   -1.8322   -1.4746 H   0  0  0  0  0  0  0  0  0  0  0  0
   -3.1815   -0.0288    1.1482 H   0  0  0  0  0  0  0  0  0  0  0  0
   -2.6806   -2.3422    0.5511 H   0  0  0  0  0  0  0  0  0  0  0  0
   -1.5354   -2.5194    1.9084 H   0  0  0  0  0  0  0  0  0  0  0  0
   -3.2764   -2.4074    2.1869 H   0  0  0  0  0  0  0  0  0  0  0  0
   -3.3024   -0.5890    3.6390 H   0  0  0  0  0  0  0  0  0  0  0  0
   -2.5163    0.9405    3.3231 H   0  0  0  0  0  0  0  0  0  0  0  0
   -1.5375   -0.4929    3.7122 H   0  0  0  0  0  0  0  0  0  0  0  0
  1  2  1  0
  2  3  1  0
  4  3  1  6
  4  5  1  0
  4  6  2  0
  4  7  1  0
  7  8  1  0
  8  9  1  0
  9 10  1  0
 10 11  1  0
 11 12  1  0
 11 13  1  0
 10 14  1  0
 14 15  1  0
 14 16  1  0
  1 17  1  0
  1 18  1  0
  1 19  1  0
  2 20  1  0
  2 21  1  0
  5 22  1  0
  5 23  1  0
  5 24  1  0
  8 25  1  0
  8 26  1  0
  9 27  1  0
  9 28  1  0
 10 29  1  1
 11 30  1  6
 12 31  1  0
 12 32  1  0
 12 33  1  0
 13 34  1  0
 13 35  1  0
 13 36  1  0
 14 37  1  1
 15 38  1  0
 15 39  1  0
 15 40  1  0
 16 41  1  0
 16 42  1  0
 16 43  1  0
M  CHG  1  10   1
M  END
$$$$
