VX
     RDKit          3D

 43 42  0  0  0  0  0  0  0  0999 V2000
    3.4174   -1.9938   -1.3156 C   0  0  0  0  0  0  0  0  0  0  0  0
    3.6791   -0.5349   -1.0038 C   0  0  0  0  0  0  0  0  0  0  0  0
    2.9915   -0.1981    0.1921 O   0  0  0  0  0  0  0  0  0  0  0  0
    2.8424    1.3647    0.5774 P   0  0  1  0  0  0  0  0  0  0  0  0
    4.0404    2.1365    1.6439 C   0  0  0  0  0  0  0  0  0  0  0  0
    1.6907    2.1671    0.0344 O   0  0  0  0  0  0  0  0  0  0  0  0
    1.5455    0.7770    2.4595 S   0  0  0  0  0  0  0  0  0  0  0  0
   -0.1547    1.0587    1.8872 C   0  0  0  0  0  0  0  0  0  0  0  0
   -0.5061    0.1333    0.7186 C   0  0  0  0  0  0  0  0  0  0  0  0
   -1.9045    0.4007    0.1305 N   0  0  2  0  0  0  0  0  0  0  0  0
   -1.9018    1.7293   -0.6675 C   0  0  2  0  0  0  0  0  0  0  0  0
   -2.5690    2.8853    0.0700 C   0  0  0  0  0  0  0  0  0  0  0  0
   -2.4929    1.4977   -2.0569 C   0  0  0  0  0  0  0  0  0  0  0  0
   -3.0875    0.1195    1.0754 C   0  0  2  0  0  0  0  0  0  0  0  0
   -2.8787   -1.1954    1.8361 C   0  0  0  0  0  0  0  0  0  0  0  0
   -4.3853   -0.0074    0.2746 C   0  0  0  0  0  0  0  0  0  0  0  0
    3.7548   -2.6311   -0.4915 H   0  0  0  0  0  0  0  0  0  0  0  0
    3.9343   -2.2964   -2.2305 H   0  0  0  0  0  0  0  0  0  0  0  0
    2.3445   -2.1748   -1.4391 H   0  0  0  0  0  0  0  0  0  0  0  0
    3.3258    0.0938   -1.8269 H   0  0  0  0  0  0  0  0  0  0  0  0
    4.7506   -0.3678   -0.8618 H   0  0  0  0  0  0  0  0  0  0  0  0
    3.5745    2.9389    2.2231 H   0  0  0  0  0  0  0  0  0  0  0  0
    4.8586    2.5724    1.0644 H   0  0  0  0  0  0  0  0  0  0  0  0
    4.4632    1.4101    2.3436 H   0  0  0  0  0  0  0  0  0  0  0  0
   -0.2294    2.1102    1.6032 H   0  0  0  0  0  0  0  0  0  0  0  0
   -0.8277    0.8963    2.7333 H   0  0  0  0  0  0  0  0  0  0  0  0
   -0.4764   -0.9209    1.0121 H   0  0  0  0  0  0  0  0  0  0  0  0
    0.1878    0.2281   -0.1226 H   0  0  0  0  0  0  0  0  0  0  0  0
   -1.9792   -0.3325   -0.5873 H   0  0  0  0  0  0  0  0  0  0  0  0
   -0.8494    1.9936   -0.8197 H   0  0  0  0  0  0  0  0  0  0  0  0
   -2.3758    3.8233   -0.4632 H   0  0  0  0  0  0  0  0  0  0  0  0
   -3.6543    2.7796    0.1310 H   0  0  0  0  0  0  0  0  0  0  0  0
   -2.1826    3.0073    1.0849 H   0  0  0  0  0  0  0  0  0  0  0  0
   -3.5553    1.2477   -2.0289 H   0  0  0  0  0  0  0  0  0  0  0  0
   -1.9675    0.6892   -2.5767 H   0  0  0  0  0  0  0  0  0  0  0  0
   -2.3872    2.4015   -2.6670 H   0  0  0  0  0  0  0  0  0  0  0  0
   -3.1459    0.9467    1.7893 H   0  0  0  0  0  0  0  0  0  0  0  0
   -2.6771   -2.0275    1.1526 H   0  0  0  0  0  0  0  0  0  0  0  0
   -2.0573   -1.1280    2.5549 H   0  0  0  0  0  0  0  0  0  0  0  0
   -3.7724   -1.4505    2.4170 H   0  0  0  0  0  0  0  0  0  0  0  0
   -4.6949    0.9369   -0.1751 H   0  0  0  0  0  0  0  0  0  0  0  0
   -5.2102   -0.3183    0.9261 H   0  0  0  0  0  0  0  0  0  0  0  0
   -4.2933   -0.7537   -0.5221 H   0  0  0  0  0  0  0  0  0  0  0  0
  1  2  1  0
  2  3  1  0
  4  3  1  6
  4  5  1  0
  4  6  2  0
  4  7  1  0
  7  8  1  0
  8  9  1  0
  9 10  1  0
 10 11  1  0
 11 12  1  0
 11 13  1  0
 10 14  1  0
 14 15  1  0
 14 16  1  0
  1 17  1  0
  1 18  1  0
  1 19  1  0
  2 20  1  0
  2 21  1  0
  5 22  1  0
  5 23  1  0
  5 24  1  0
  8 25  1  0
  8 26  1  0
  9 27  1  0
  9 28  1  0
 10 29  1  6
 11 30  1  6
 12 31  1  0
 12 32  1  0
 12 33  1  0
 13 34  1  0
 13 35  1  0
 13 36  1  0
 14 37  1  1
 15 38  1  0
 15 39  1  0
 15 40  1  0
 16 41  1  0
 16 42  1  0
 16 43  1  0
M  CHG  1  10   1
M  END
$$$$
