VX
     RDKit          3D

 43 42  0  0  0  0  0  0  0  0999 V2000
    2.4898   -1.1217   -1.9396 C   0  0  0  0  0  0  0  0  0  0  0  0
    3.5729   -0.5443   -1.0520 C   0  0  0  0  0  0  0  0  0  0  0  0
    3.0067   -0.1964    0.2032 O   0  0  0  0  0  0  0  0  0  0  0  0
    2.8316    1.3653    0.5702 P   0  0  1  0  0  0  0  0  0  0  0  0
    4.0395    2.1235    1.6392 C   0  0  0  0  0  0  0  0  0  0  0  0
    1.6871    2.1776    0.0352 O   0  0  0  0  0  0  0  0  0  0  0  0
    1.5347    0.7776    2.4523 S   0  0  0  0  0  0  0  0  0  0  0  0
    0.2663    2.0845    2.5588 C   0  0  0  0  0  0  0  0  0  0  0  0
   -0.8563    1.8810    1.5312 C   0  0  0  0  0  0  0  0  0  0  0  0
   -1.4263    0.4512    1.5502 N   0  0  2  0  0  0  0  0  0  0  0  0
   -2.0848   -0.0237    0.2308 C   0  0  1  0  0  0  0  0  0  0  0  0
   -1.4669    0.5969   -1.0209 C   0  0  0  0  0  0  0  0  0  0  0  0
   -1.9338   -1.5486    0.1358 C   0  0  0  0  0  0  0  0  0  0  0  0
   -2.3294    0.1001    2.7587 C   0  0  2  0  0  0  0  0  0  0  0  0
   -3.1847    1.2743    3.2205 C   0  0  0  0  0  0  0  0  0  0  0  0
   -1.5110   -0.5130    3.8893 C   0  0  0  0  0  0  0  0  0  0  0  0
    1.7018   -0.3832   -2.1177 H   0  0  0  0  0  0  0  0  0  0  0  0
    2.9013   -1.4353   -2.9031 H   0  0  0  0  0  0  0  0  0  0  0  0
    2.0154   -1.9840   -1.4597 H   0  0  0  0  0  0  0  0  0  0  0  0
    4.3534   -1.2899   -0.8742 H   0  0  0  0  0  0  0  0  0  0  0  0
    4.0369    0.3241   -1.5303 H   0  0  0  0  0  0  0  0  0  0  0  0
    4.4416    1.3939    2.3478 H   0  0  0  0  0  0  0  0  0  0  0  0
    3.5859    2.9403    2.2080 H   0  0  0  0  0  0  0  0  0  0  0  0
    4.8720    2.5345    1.0620 H   0  0  0  0  0  0  0  0  0  0  0  0
   -0.1370    2.0969    3.5737 H   0  0  0  0  0  0  0  0  0  0  0  0
    0.7453    3.0560    2.3995 H   0  0  0  0  0  0  0  0  0  0  0  0
   -1.6783    2.5892    1.6612 H   0  0  0  0  0  0  0  0  0  0  0  0
   -0.4388    2.0649    0.5455 H   0  0  0  0  0  0  0  0  0  0  0  0
   -0.5772   -0.1301    1.6404 H   0  0  0  0  0  0  0  0  0  0  0  0
   -3.1418    0.2601    0.2872 H   0  0  0  0  0  0  0  0  0  0  0  0
   -0.3822    0.4519   -1.0526 H   0  0  0  0  0  0  0  0  0  0  0  0
   -1.6924    1.6655   -1.0940 H   0  0  0  0  0  0  0  0  0  0  0  0
   -1.8857    0.1356   -1.9230 H   0  0  0  0  0  0  0  0  0  0  0  0
   -0.8774   -1.8394    0.1031 H   0  0  0  0  0  0  0  0  0  0  0  0
   -2.4106   -1.9237   -0.7765 H   0  0  0  0  0  0  0  0  0  0  0  0
   -2.3970   -2.0738    0.9750 H   0  0  0  0  0  0  0  0  0  0  0  0
   -3.0194   -0.6771    2.4162 H   0  0  0  0  0  0  0  0  0  0  0  0
   -3.7478    1.7085    2.3880 H   0  0  0  0  0  0  0  0  0  0  0  0
   -3.9137    0.9360    3.9654 H   0  0  0  0  0  0  0  0  0  0  0  0
   -2.5895    2.0611    3.6938 H   0  0  0  0  0  0  0  0  0  0  0  0
   -0.8791    0.2184    4.3965 H   0  0  0  0  0  0  0  0  0  0  0  0
   -2.1806   -0.9321    4.6491 H   0  0  0  0  0  0  0  0  0  0  0  0
   -0.8802   -1.3307    3.5260 H   0  0  0  0  0  0  0  0  0  0  0  0
  1  2  1  0
  2  3  1  0
  4  3  1  6
  4  5  1  0
  4  6  2  0
  4  7  1  0
  7  8  1  0
  8  9  1  0
  9 10  1  0
 10 11  1  0
 11 12  1  0
 11 13  1  0
 10 14  1  0
 14 15  1  0
 14 16  1  0
  1 17  1  0
  1 18  1  0
  1 19  1  0
  2 20  1  0
  2 21  1  0
  5 22  1  0
  5 23  1  0
  5 24  1  0
  8 25  1  0
  8 26  1  0
  9 27  1  0
  9 28  1  0
 10 29  1  1
 11 30  1  6
 12 31  1  0
 12 32  1  0
 12 33  1  0
 13 34  1  0
 13 35  1  0
 13 36  1  0
 14 37  1  6
 15 38  1  0
 15 39  1  0
 15 40  1  0
 16 41  1  0
 16 42  1  0
 16 43  1  0
M  CHG  1  10   1
M  END
$$$$
