VX
     RDKit          3D

 43 42  0  0  0  0  0  0  0  0999 V2000
    3.3615   -2.4896    0.7334 C   0  0  0  0  0  0  0  0  0  0  0  0
    3.7650   -1.0583    1.0212 C   0  0  0  0  0  0  0  0  0  0  0  0
    2.9977   -0.1977    0.1966 O   0  0  0  0  0  0  0  0  0  0  0  0
    2.8373    1.3648    0.5739 P   0  0  1  0  0  0  0  0  0  0  0  0
    4.0410    2.1317    1.6428 C   0  0  0  0  0  0  0  0  0  0  0  0
    1.6889    2.1714    0.0345 O   0  0  0  0  0  0  0  0  0  0  0  0
    1.5404    0.7771    2.4560 S   0  0  0  0  0  0  0  0  0  0  0  0
   -0.1069    0.6123    1.7096 C   0  0  0  0  0  0  0  0  0  0  0  0
   -1.1565    0.2669    2.7667 C   0  0  0  0  0  0  0  0  0  0  0  0
   -2.5846    0.3836    2.2113 N   0  0  2  0  0  0  0  0  0  0  0  0
   -3.6628    0.6097    3.2894 C   0  0  1  0  0  0  0  0  0  0  0  0
   -3.4179   -0.2067    4.5571 C   0  0  0  0  0  0  0  0  0  0  0  0
   -3.7372    2.1053    3.5997 C   0  0  0  0  0  0  0  0  0  0  0  0
   -2.9284   -0.6598    1.1369 C   0  0  1  0  0  0  0  0  0  0  0  0
   -3.2664   -2.0208    1.7289 C   0  0  0  0  0  0  0  0  0  0  0  0
   -4.0453   -0.1280    0.2385 C   0  0  0  0  0  0  0  0  0  0  0  0
    3.9395   -3.1887    1.3442 H   0  0  0  0  0  0  0  0  0  0  0  0
    2.2961   -2.6380    0.9388 H   0  0  0  0  0  0  0  0  0  0  0  0
    3.5187   -2.7303   -0.3233 H   0  0  0  0  0  0  0  0  0  0  0  0
    4.8254   -0.9150    0.7932 H   0  0  0  0  0  0  0  0  0  0  0  0
    3.5959   -0.8273    2.0769 H   0  0  0  0  0  0  0  0  0  0  0  0
    4.8949    2.4903    1.0613 H   0  0  0  0  0  0  0  0  0  0  0  0
    4.4073    1.4337    2.4005 H   0  0  0  0  0  0  0  0  0  0  0  0
    3.5972    2.9872    2.1601 H   0  0  0  0  0  0  0  0  0  0  0  0
   -0.0444   -0.1617    0.9407 H   0  0  0  0  0  0  0  0  0  0  0  0
   -0.3636    1.5589    1.2244 H   0  0  0  0  0  0  0  0  0  0  0  0
   -1.0321   -0.7485    3.1552 H   0  0  0  0  0  0  0  0  0  0  0  0
   -1.0887    0.9841    3.5908 H   0  0  0  0  0  0  0  0  0  0  0  0
   -2.5693    1.2691    1.6859 H   0  0  0  0  0  0  0  0  0  0  0  0
   -4.6199    0.3105    2.8538 H   0  0  0  0  0  0  0  0  0  0  0  0
   -3.2787   -1.2697    4.3488 H   0  0  0  0  0  0  0  0  0  0  0  0
   -2.5466    0.1470    5.1173 H   0  0  0  0  0  0  0  0  0  0  0  0
   -4.2810   -0.1182    5.2268 H   0  0  0  0  0  0  0  0  0  0  0  0
   -3.9626    2.6827    2.6966 H   0  0  0  0  0  0  0  0  0  0  0  0
   -4.5329    2.3055    4.3255 H   0  0  0  0  0  0  0  0  0  0  0  0
   -2.8002    2.4843    4.0198 H   0  0  0  0  0  0  0  0  0  0  0  0
   -2.0379   -0.7613    0.5107 H   0  0  0  0  0  0  0  0  0  0  0  0
   -2.4650   -2.3918    2.3742 H   0  0  0  0  0  0  0  0  0  0  0  0
   -4.1985   -2.0017    2.3016 H   0  0  0  0  0  0  0  0  0  0  0  0
   -3.4001   -2.7548    0.9263 H   0  0  0  0  0  0  0  0  0  0  0  0
   -4.1922   -0.7986   -0.6154 H   0  0  0  0  0  0  0  0  0  0  0  0
   -5.0039   -0.0542    0.7599 H   0  0  0  0  0  0  0  0  0  0  0  0
   -3.7949    0.8611   -0.1596 H   0  0  0  0  0  0  0  0  0  0  0  0
  1  2  1  0
  2  3  1  0
  4  3  1  6
  4  5  1  0
  4  6  2  0
  4  7  1  0
  7  8  1  0
  8  9  1  0
  9 10  1  0
 10 11  1  0
 11 12  1  0
 11 13  1  0
 10 14  1  0
 14 15  1  0
 14 16  1  0
  1 17  1  0
  1 18  1  0
  1 19  1  0
  2 20  1  0
  2 21  1  0
  5 22  1  0
  5 23  1  0
  5 24  1  0
  8 25  1  0
  8 26  1  0
  9 27  1  0
  9 28  1  0
 10 29  1  6
 11 30  1  1
 12 31  1  0
 12 32  1  0
 12 33  1  0
 13 34  1  0
 13 35  1  0
 13 36  1  0
 14 37  1  1
 15 38  1  0
 15 39  1  0
 15 40  1  0
 16 41  1  0
 16 42  1  0
 16 43  1  0
M  CHG  1  10   1
M  END
$$$$
