VX
     RDKit          3D

 43 42  0  0  0  0  0  0  0  0999 V2000
    3.5710   -2.0430   -1.1925 C   0  0  0  0  0  0  0  0  0  0  0  0
    3.5506   -0.5341   -1.0633 C   0  0  0  0  0  0  0  0  0  0  0  0
    3.0061   -0.1953    0.2031 O   0  0  0  0  0  0  0  0  0  0  0  0
    2.8325    1.3649    0.5706 P   0  0  1  0  0  0  0  0  0  0  0  0
    4.0393    2.1236    1.6391 C   0  0  0  0  0  0  0  0  0  0  0  0
    1.6870    2.1770    0.0349 O   0  0  0  0  0  0  0  0  0  0  0  0
    1.5356    0.7772    2.4527 S   0  0  0  0  0  0  0  0  0  0  0  0
    0.6842    2.3122    2.9398 C   0  0  0  0  0  0  0  0  0  0  0  0
   -0.4331    2.7381    1.9694 C   0  0  0  0  0  0  0  0  0  0  0  0
   -1.2552    1.5395    1.4623 N   0  0  1  0  0  0  0  0  0  0  0  0
   -2.2211    1.0080    2.5232 C   0  0  2  0  0  0  0  0  0  0  0  0
   -2.3332   -0.5136    2.4605 C   0  0  0  0  0  0  0  0  0  0  0  0
   -3.5771    1.6928    2.5108 C   0  0  0  0  0  0  0  0  0  0  0  0
   -1.6680    1.7285   -0.0024 C   0  0  1  0  0  0  0  0  0  0  0  0
   -2.2491    0.4568   -0.6031 C   0  0  0  0  0  0  0  0  0  0  0  0
   -2.5673    2.9400   -0.2318 C   0  0  0  0  0  0  0  0  0  0  0  0
    2.5599   -2.4523   -1.0960 H   0  0  0  0  0  0  0  0  0  0  0  0
    3.9841   -2.3466   -2.1584 H   0  0  0  0  0  0  0  0  0  0  0  0
    4.1729   -2.4901   -0.3944 H   0  0  0  0  0  0  0  0  0  0  0  0
    2.9331   -0.0977   -1.8542 H   0  0  0  0  0  0  0  0  0  0  0  0
    4.5663   -0.1368   -1.1442 H   0  0  0  0  0  0  0  0  0  0  0  0
    3.5794    2.9215    2.2291 H   0  0  0  0  0  0  0  0  0  0  0  0
    4.8561    2.5619    1.0597 H   0  0  0  0  0  0  0  0  0  0  0  0
    4.4632    1.3882    2.3288 H   0  0  0  0  0  0  0  0  0  0  0  0
    1.4193    3.1176    3.0357 H   0  0  0  0  0  0  0  0  0  0  0  0
    0.2638    2.1463    3.9366 H   0  0  0  0  0  0  0  0  0  0  0  0
   -1.1260    3.4388    2.4476 H   0  0  0  0  0  0  0  0  0  0  0  0
   -0.0006    3.2431    1.1021 H   0  0  0  0  0  0  0  0  0  0  0  0
   -0.5318    0.8053    1.3924 H   0  0  0  0  0  0  0  0  0  0  0  0
   -1.7502    1.2358    3.4858 H   0  0  0  0  0  0  0  0  0  0  0  0
   -2.9397   -0.8599    1.6216 H   0  0  0  0  0  0  0  0  0  0  0  0
   -1.3495   -0.9892    2.3973 H   0  0  0  0  0  0  0  0  0  0  0  0
   -2.8169   -0.8869    3.3707 H   0  0  0  0  0  0  0  0  0  0  0  0
   -4.1866    1.3822    1.6583 H   0  0  0  0  0  0  0  0  0  0  0  0
   -3.4818    2.7827    2.5092 H   0  0  0  0  0  0  0  0  0  0  0  0
   -4.1394    1.4203    3.4116 H   0  0  0  0  0  0  0  0  0  0  0  0
   -0.7250    1.9150   -0.5289 H   0  0  0  0  0  0  0  0  0  0  0  0
   -2.3191    0.5561   -1.6925 H   0  0  0  0  0  0  0  0  0  0  0  0
   -1.6133   -0.4100   -0.3969 H   0  0  0  0  0  0  0  0  0  0  0  0
   -3.2604    0.2553   -0.2404 H   0  0  0  0  0  0  0  0  0  0  0  0
   -2.6055    3.1685   -1.3034 H   0  0  0  0  0  0  0  0  0  0  0  0
   -2.1990    3.8374    0.2725 H   0  0  0  0  0  0  0  0  0  0  0  0
   -3.5990    2.7672    0.0803 H   0  0  0  0  0  0  0  0  0  0  0  0
  1  2  1  0
  2  3  1  0
  4  3  1  6
  4  5  1  0
  4  6  2  0
  4  7  1  0
  7  8  1  0
  8  9  1  0
  9 10  1  0
 10 11  1  0
 11 12  1  0
 11 13  1  0
 10 14  1  0
 14 15  1  0
 14 16  1  0
  1 17  1  0
  1 18  1  0
  1 19  1  0
  2 20  1  0
  2 21  1  0
  5 22  1  0
  5 23  1  0
  5 24  1  0
  8 25  1  0
  8 26  1  0
  9 27  1  0
  9 28  1  0
 10 29  1  1
 11 30  1  1
 12 31  1  0
 12 32  1  0
 12 33  1  0
 13 34  1  0
 13 35  1  0
 13 36  1  0
 14 37  1  1
 15 38  1  0
 15 39  1  0
 15 40  1  0
 16 41  1  0
 16 42  1  0
 16 43  1  0
M  CHG  1  10   1
M  END
$$$$
