VX
     RDKit          3D

 43 42  0  0  0  0  0  0  0  0999 V2000
    3.2690   -1.9283   -1.4228 C   0  0  0  0  0  0  0  0  0  0  0  0
    3.6870   -0.5355   -0.9994 C   0  0  0  0  0  0  0  0  0  0  0  0
    2.9895   -0.1980    0.1908 O   0  0  0  0  0  0  0  0  0  0  0  0
    2.8438    1.3645    0.5783 P   0  0  1  0  0  0  0  0  0  0  0  0
    4.0404    2.1381    1.6444 C   0  0  0  0  0  0  0  0  0  0  0  0
    1.6913    2.1656    0.0343 O   0  0  0  0  0  0  0  0  0  0  0  0
    1.5469    0.7768    2.4604 S   0  0  0  0  0  0  0  0  0  0  0  0
   -0.1511    1.0065    1.8631 C   0  0  0  0  0  0  0  0  0  0  0  0
   -0.4637    0.0667    0.6887 C   0  0  0  0  0  0  0  0  0  0  0  0
   -1.7228    0.5081   -0.0673 N   0  0  1  0  0  0  0  0  0  0  0  0
   -1.4724    1.7332   -0.9735 C   0  0  2  0  0  0  0  0  0  0  0  0
   -2.7830    2.4966   -1.1671 C   0  0  0  0  0  0  0  0  0  0  0  0
   -0.8238    1.3671   -2.3012 C   0  0  0  0  0  0  0  0  0  0  0  0
   -2.5207   -0.6411   -0.7058 C   0  0  2  0  0  0  0  0  0  0  0  0
   -3.4450   -1.2376    0.3568 C   0  0  0  0  0  0  0  0  0  0  0  0
   -1.6324   -1.7174   -1.3281 C   0  0  0  0  0  0  0  0  0  0  0  0
    3.7895   -2.2324   -2.3351 H   0  0  0  0  0  0  0  0  0  0  0  0
    3.4871   -2.6549   -0.6327 H   0  0  0  0  0  0  0  0  0  0  0  0
    2.1892   -1.9676   -1.6026 H   0  0  0  0  0  0  0  0  0  0  0  0
    4.7624   -0.5061   -0.8007 H   0  0  0  0  0  0  0  0  0  0  0  0
    3.4528    0.1827   -1.7916 H   0  0  0  0  0  0  0  0  0  0  0  0
    4.4570    1.4143    2.3506 H   0  0  0  0  0  0  0  0  0  0  0  0
    4.8633    2.5641    1.0642 H   0  0  0  0  0  0  0  0  0  0  0  0
    3.5762    2.9469    2.2159 H   0  0  0  0  0  0  0  0  0  0  0  0
   -0.2716    2.0599    1.6014 H   0  0  0  0  0  0  0  0  0  0  0  0
   -0.8401    0.8028    2.6902 H   0  0  0  0  0  0  0  0  0  0  0  0
    0.3350   -0.0112   -0.0513 H   0  0  0  0  0  0  0  0  0  0  0  0
   -0.6595   -0.9293    1.0981 H   0  0  0  0  0  0  0  0  0  0  0  0
   -2.3439    0.8748    0.6650 H   0  0  0  0  0  0  0  0  0  0  0  0
   -0.7963    2.3917   -0.4225 H   0  0  0  0  0  0  0  0  0  0  0  0
   -2.5968    3.4361   -1.6996 H   0  0  0  0  0  0  0  0  0  0  0  0
   -3.5139    1.9309   -1.7518 H   0  0  0  0  0  0  0  0  0  0  0  0
   -3.2382    2.7492   -0.2036 H   0  0  0  0  0  0  0  0  0  0  0  0
    0.1089    0.8138   -2.1604 H   0  0  0  0  0  0  0  0  0  0  0  0
   -0.5750    2.2774   -2.8586 H   0  0  0  0  0  0  0  0  0  0  0  0
   -1.4902    0.7773   -2.9379 H   0  0  0  0  0  0  0  0  0  0  0  0
   -3.1478   -0.1995   -1.4854 H   0  0  0  0  0  0  0  0  0  0  0  0
   -4.0640   -2.0303   -0.0770 H   0  0  0  0  0  0  0  0  0  0  0  0
   -2.8836   -1.6713    1.1907 H   0  0  0  0  0  0  0  0  0  0  0  0
   -4.1212   -0.4767    0.7615 H   0  0  0  0  0  0  0  0  0  0  0  0
   -1.0962   -2.3033   -0.5750 H   0  0  0  0  0  0  0  0  0  0  0  0
   -2.2519   -2.4245   -1.8920 H   0  0  0  0  0  0  0  0  0  0  0  0
   -0.8971   -1.3078   -2.0238 H   0  0  0  0  0  0  0  0  0  0  0  0
  1  2  1  0
  2  3  1  0
  4  3  1  6
  4  5  1  0
  4  6  2  0
  4  7  1  0
  7  8  1  0
  8  9  1  0
  9 10  1  0
 10 11  1  0
 11 12  1  0
 11 13  1  0
 10 14  1  0
 14 15  1  0
 14 16  1  0
  1 17  1  0
  1 18  1  0
  1 19  1  0
  2 20  1  0
  2 21  1  0
  5 22  1  0
  5 23  1  0
  5 24  1  0
  8 25  1  0
  8 26  1  0
  9 27  1  0
  9 28  1  0
 10 29  1  6
 11 30  1  1
 12 31  1  0
 12 32  1  0
 12 33  1  0
 13 34  1  0
 13 35  1  0
 13 36  1  0
 14 37  1  6
 15 38  1  0
 15 39  1  0
 15 40  1  0
 16 41  1  0
 16 42  1  0
 16 43  1  0
M  CHG  1  10   1
M  END
$$$$
