VX
     RDKit          3D

 43 42  0  0  0  0  0  0  0  0999 V2000
    4.5296   -0.4781   -1.6595 C   0  0  0  0  0  0  0  0  0  0  0  0
    3.1127   -0.6128   -1.1432 C   0  0  0  0  0  0  0  0  0  0  0  0
    3.0148   -0.1947    0.2093 O   0  0  0  0  0  0  0  0  0  0  0  0
    2.8276    1.3651    0.5673 P   0  0  1  0  0  0  0  0  0  0  0  0
    4.0386    2.1160    1.6363 C   0  0  0  0  0  0  0  0  0  0  0  0
    1.6840    2.1837    0.0349 O   0  0  0  0  0  0  0  0  0  0  0  0
    1.5307    0.7774    2.4494 S   0  0  0  0  0  0  0  0  0  0  0  0
    0.7274    2.3350    2.9428 C   0  0  0  0  0  0  0  0  0  0  0  0
   -0.8015    2.1980    2.9259 C   0  0  0  0  0  0  0  0  0  0  0  0
   -1.3342    1.6904    1.5839 N   0  0  1  0  0  0  0  0  0  0  0  0
   -2.5999    0.8274    1.6756 C   0  0  1  0  0  0  0  0  0  0  0  0
   -2.1954   -0.6070    2.0170 C   0  0  0  0  0  0  0  0  0  0  0  0
   -3.6172    1.3689    2.6786 C   0  0  0  0  0  0  0  0  0  0  0  0
   -1.3174    2.7440    0.4652 C   0  0  1  0  0  0  0  0  0  0  0  0
   -1.2856    2.0545   -0.8997 C   0  0  0  0  0  0  0  0  0  0  0  0
   -2.4798    3.7233    0.5695 C   0  0  0  0  0  0  0  0  0  0  0  0
    4.6288   -0.9466   -2.6430 H   0  0  0  0  0  0  0  0  0  0  0  0
    4.8086    0.5743   -1.7580 H   0  0  0  0  0  0  0  0  0  0  0  0
    5.2421   -0.9419   -0.9699 H   0  0  0  0  0  0  0  0  0  0  0  0
    2.8131   -1.6650   -1.1762 H   0  0  0  0  0  0  0  0  0  0  0  0
    2.4095   -0.0565   -1.7707 H   0  0  0  0  0  0  0  0  0  0  0  0
    4.8492    2.5715    1.0643 H   0  0  0  0  0  0  0  0  0  0  0  0
    4.4709    1.3733    2.3127 H   0  0  0  0  0  0  0  0  0  0  0  0
    3.5760    2.9010    2.2419 H   0  0  0  0  0  0  0  0  0  0  0  0
    1.0576    2.5816    3.9570 H   0  0  0  0  0  0  0  0  0  0  0  0
    1.0575    3.1493    2.2930 H   0  0  0  0  0  0  0  0  0  0  0  0
   -1.0900    1.4714    3.6920 H   0  0  0  0  0  0  0  0  0  0  0  0
   -1.2924    3.1495    3.1485 H   0  0  0  0  0  0  0  0  0  0  0  0
   -0.5957    1.0322    1.2876 H   0  0  0  0  0  0  0  0  0  0  0  0
   -3.0544    0.8179    0.6815 H   0  0  0  0  0  0  0  0  0  0  0  0
   -1.5037   -1.0087    1.2685 H   0  0  0  0  0  0  0  0  0  0  0  0
   -3.0761   -1.2583    2.0340 H   0  0  0  0  0  0  0  0  0  0  0  0
   -1.7128   -0.6748    2.9971 H   0  0  0  0  0  0  0  0  0  0  0  0
   -4.5585    0.8154    2.5844 H   0  0  0  0  0  0  0  0  0  0  0  0
   -3.8454    2.4242    2.5164 H   0  0  0  0  0  0  0  0  0  0  0  0
   -3.2856    1.2498    3.7146 H   0  0  0  0  0  0  0  0  0  0  0  0
   -0.3856    3.3019    0.5889 H   0  0  0  0  0  0  0  0  0  0  0  0
   -2.2506    1.6118   -1.1643 H   0  0  0  0  0  0  0  0  0  0  0  0
   -0.5307    1.2631   -0.9378 H   0  0  0  0  0  0  0  0  0  0  0  0
   -1.0426    2.7834   -1.6807 H   0  0  0  0  0  0  0  0  0  0  0  0
   -3.4431    3.2406    0.3787 H   0  0  0  0  0  0  0  0  0  0  0  0
   -2.3668    4.5171   -0.1775 H   0  0  0  0  0  0  0  0  0  0  0  0
   -2.5185    4.2069    1.5497 H   0  0  0  0  0  0  0  0  0  0  0  0
  1  2  1  0
  2  3  1  0
  4  3  1  6
  4  5  1  0
  4  6  2  0
  4  7  1  0
  7  8  1  0
  8  9  1  0
  9 10  1  0
 10 11  1  0
 11 12  1  0
 11 13  1  0
 10 14  1  0
 14 15  1  0
 14 16  1  0
  1 17  1  0
  1 18  1  0
  1 19  1  0
  2 20  1  0
  2 21  1  0
  5 22  1  0
  5 23  1  0
  5 24  1  0
  8 25  1  0
  8 26  1  0
  9 27  1  0
  9 28  1  0
 10 29  1  1
 11 30  1  1
 12 31  1  0
 12 32  1  0
 12 33  1  0
 13 34  1  0
 13 35  1  0
 13 36  1  0
 14 37  1  6
 15 38  1  0
 15 39  1  0
 15 40  1  0
 16 41  1  0
 16 42  1  0
 16 43  1  0
M  CHG  1  10   1
M  END
$$$$
