VX
     RDKit          3D

 43 42  0  0  0  0  0  0  0  0999 V2000
    3.6354   -2.0447   -1.1646 C   0  0  0  0  0  0  0  0  0  0  0  0
    3.5566   -0.5350   -1.0624 C   0  0  0  0  0  0  0  0  0  0  0  0
    3.0031   -0.1954    0.2010 O   0  0  0  0  0  0  0  0  0  0  0  0
    2.8348    1.3647    0.5722 P   0  0  1  0  0  0  0  0  0  0  0  0
    4.0393    2.1259    1.6399 C   0  0  0  0  0  0  0  0  0  0  0  0
    1.6877    2.1749    0.0347 O   0  0  0  0  0  0  0  0  0  0  0  0
    1.5379    0.7770    2.4543 S   0  0  0  0  0  0  0  0  0  0  0  0
    0.1534   -0.1294    1.6877 C   0  0  0  0  0  0  0  0  0  0  0  0
   -1.1989    0.4129    2.1575 C   0  0  0  0  0  0  0  0  0  0  0  0
   -1.3024    1.9460    2.0291 N   0  0  2  0  0  0  0  0  0  0  0  0
   -2.0815    2.5434    3.2048 C   0  0  1  0  0  0  0  0  0  0  0  0
   -1.9825    4.0595    3.2641 C   0  0  0  0  0  0  0  0  0  0  0  0
   -3.5271    2.0608    3.2856 C   0  0  0  0  0  0  0  0  0  0  0  0
   -1.5335    2.3984    0.5812 C   0  0  1  0  0  0  0  0  0  0  0  0
   -2.9893    2.3119    0.1490 C   0  0  0  0  0  0  0  0  0  0  0  0
   -0.9407    3.7796    0.3163 C   0  0  0  0  0  0  0  0  0  0  0  0
    2.6383   -2.4874   -1.0764 H   0  0  0  0  0  0  0  0  0  0  0  0
    4.2418   -2.4578   -0.3524 H   0  0  0  0  0  0  0  0  0  0  0  0
    4.0725   -2.3488   -2.1202 H   0  0  0  0  0  0  0  0  0  0  0  0
    2.9180   -0.1388   -1.8602 H   0  0  0  0  0  0  0  0  0  0  0  0
    4.5558   -0.1006   -1.1548 H   0  0  0  0  0  0  0  0  0  0  0  0
    3.5784    2.9329    2.2173 H   0  0  0  0  0  0  0  0  0  0  0  0
    4.4565    1.3968    2.3411 H   0  0  0  0  0  0  0  0  0  0  0  0
    4.8613    2.5560    1.0614 H   0  0  0  0  0  0  0  0  0  0  0  0
    0.2331   -0.0693    0.5980 H   0  0  0  0  0  0  0  0  0  0  0  0
    0.2407   -1.1863    1.9583 H   0  0  0  0  0  0  0  0  0  0  0  0
   -1.3278    0.1633    3.2168 H   0  0  0  0  0  0  0  0  0  0  0  0
   -2.0269   -0.0307    1.5974 H   0  0  0  0  0  0  0  0  0  0  0  0
   -0.3310    2.2422    2.2188 H   0  0  0  0  0  0  0  0  0  0  0  0
   -1.5540    2.1639    4.0893 H   0  0  0  0  0  0  0  0  0  0  0  0
   -2.3295    4.4203    4.2404 H   0  0  0  0  0  0  0  0  0  0  0  0
   -0.9515    4.4030    3.1394 H   0  0  0  0  0  0  0  0  0  0  0  0
   -2.6167    4.5385    2.5158 H   0  0  0  0  0  0  0  0  0  0  0  0
   -4.1796    2.5640    2.5702 H   0  0  0  0  0  0  0  0  0  0  0  0
   -3.9322    2.2834    4.2803 H   0  0  0  0  0  0  0  0  0  0  0  0
   -3.6196    0.9809    3.1359 H   0  0  0  0  0  0  0  0  0  0  0  0
   -0.9617    1.6932   -0.0322 H   0  0  0  0  0  0  0  0  0  0  0  0
   -3.0608    2.4357   -0.9377 H   0  0  0  0  0  0  0  0  0  0  0  0
   -3.5963    3.1064    0.5931 H   0  0  0  0  0  0  0  0  0  0  0  0
   -3.4358    1.3443    0.3969 H   0  0  0  0  0  0  0  0  0  0  0  0
   -0.8006    3.9217   -0.7633 H   0  0  0  0  0  0  0  0  0  0  0  0
   -1.5975    4.5894    0.6458 H   0  0  0  0  0  0  0  0  0  0  0  0
    0.0353    3.9077    0.7935 H   0  0  0  0  0  0  0  0  0  0  0  0
  1  2  1  0
  2  3  1  0
  4  3  1  6
  4  5  1  0
  4  6  2  0
  4  7  1  0
  7  8  1  0
  8  9  1  0
  9 10  1  0
 10 11  1  0
 11 12  1  0
 11 13  1  0
 10 14  1  0
 14 15  1  0
 14 16  1  0
  1 17  1  0
  1 18  1  0
  1 19  1  0
  2 20  1  0
  2 21  1  0
  5 22  1  0
  5 23  1  0
  5 24  1  0
  8 25  1  0
  8 26  1  0
  9 27  1  0
  9 28  1  0
 10 29  1  1
 11 30  1  6
 12 31  1  0
 12 32  1  0
 12 33  1  0
 13 34  1  0
 13 35  1  0
 13 36  1  0
 14 37  1  1
 15 38  1  0
 15 39  1  0
 15 40  1  0
 16 41  1  0
 16 42  1  0
 16 43  1  0
M  CHG  1  10   1
M  END
$$$$
