VX
     RDKit          3D

 43 42  0  0  0  0  0  0  0  0999 V2000
    3.4754   -2.0248   -1.2584 C   0  0  0  0  0  0  0  0  0  0  0  0
    3.6100   -0.5319   -1.0413 C   0  0  0  0  0  0  0  0  0  0  0  0
    2.9919   -0.1981    0.1924 O   0  0  0  0  0  0  0  0  0  0  0  0
    2.8423    1.3647    0.5773 P   0  0  1  0  0  0  0  0  0  0  0  0
    4.0402    2.1361    1.6436 C   0  0  0  0  0  0  0  0  0  0  0  0
    1.6906    2.1674    0.0344 O   0  0  0  0  0  0  0  0  0  0  0  0
    1.5454    0.7770    2.4594 S   0  0  0  0  0  0  0  0  0  0  0  0
   -0.1538    1.0486    1.8875 C   0  0  0  0  0  0  0  0  0  0  0  0
   -0.4990    0.1423    0.6969 C   0  0  0  0  0  0  0  0  0  0  0  0
   -1.8216    0.5775    0.0307 N   0  0  2  0  0  0  0  0  0  0  0  0
   -2.6368   -0.6364   -0.4310 C   0  0  2  0  0  0  0  0  0  0  0  0
   -1.9186   -1.5167   -1.4502 C   0  0  0  0  0  0  0  0  0  0  0  0
   -4.0355   -0.2464   -0.8878 C   0  0  0  0  0  0  0  0  0  0  0  0
   -1.6027    1.8014   -0.8808 C   0  0  1  0  0  0  0  0  0  0  0  0
   -1.2090    1.4486   -2.3047 C   0  0  0  0  0  0  0  0  0  0  0  0
   -2.8021    2.7446   -0.8178 C   0  0  0  0  0  0  0  0  0  0  0  0
    3.9427   -2.3259   -2.2003 H   0  0  0  0  0  0  0  0  0  0  0  0
    3.9446   -2.5778   -0.4381 H   0  0  0  0  0  0  0  0  0  0  0  0
    2.4203   -2.3180   -1.2779 H   0  0  0  0  0  0  0  0  0  0  0  0
    3.1212    0.0102   -1.8564 H   0  0  0  0  0  0  0  0  0  0  0  0
    4.6662   -0.2510   -1.0086 H   0  0  0  0  0  0  0  0  0  0  0  0
    4.8605    2.5694    1.0654 H   0  0  0  0  0  0  0  0  0  0  0  0
    4.4603    1.4105    2.3460 H   0  0  0  0  0  0  0  0  0  0  0  0
    3.5751    2.9405    2.2208 H   0  0  0  0  0  0  0  0  0  0  0  0
   -0.8354    0.8411    2.7194 H   0  0  0  0  0  0  0  0  0  0  0  0
   -0.2610    2.1089    1.6453 H   0  0  0  0  0  0  0  0  0  0  0  0
   -0.6376   -0.8812    1.0641 H   0  0  0  0  0  0  0  0  0  0  0  0
    0.2557    0.1280   -0.0928 H   0  0  0  0  0  0  0  0  0  0  0  0
   -2.3841    0.9431    0.8099 H   0  0  0  0  0  0  0  0  0  0  0  0
   -2.7636   -1.2300    0.4843 H   0  0  0  0  0  0  0  0  0  0  0  0
   -0.8846   -1.7315   -1.1673 H   0  0  0  0  0  0  0  0  0  0  0  0
   -2.4346   -2.4812   -1.5265 H   0  0  0  0  0  0  0  0  0  0  0  0
   -1.9196   -1.0914   -2.4553 H   0  0  0  0  0  0  0  0  0  0  0  0
   -4.5248    0.4105   -0.1614 H   0  0  0  0  0  0  0  0  0  0  0  0
   -4.6598   -1.1418   -0.9879 H   0  0  0  0  0  0  0  0  0  0  0  0
   -4.0278    0.2430   -1.8651 H   0  0  0  0  0  0  0  0  0  0  0  0
   -0.7679    2.3523   -0.4386 H   0  0  0  0  0  0  0  0  0  0  0  0
   -0.8810    2.3517   -2.8327 H   0  0  0  0  0  0  0  0  0  0  0  0
   -0.3747    0.7415   -2.3334 H   0  0  0  0  0  0  0  0  0  0  0  0
   -2.0480    1.0437   -2.8764 H   0  0  0  0  0  0  0  0  0  0  0  0
   -3.6734    2.3618   -1.3526 H   0  0  0  0  0  0  0  0  0  0  0  0
   -3.0927    2.9506    0.2178 H   0  0  0  0  0  0  0  0  0  0  0  0
   -2.5452    3.7043   -1.2805 H   0  0  0  0  0  0  0  0  0  0  0  0
  1  2  1  0
  2  3  1  0
  4  3  1  6
  4  5  1  0
  4  6  2  0
  4  7  1  0
  7  8  1  0
  8  9  1  0
  9 10  1  0
 10 11  1  0
 11 12  1  0
 11 13  1  0
 10 14  1  0
 14 15  1  0
 14 16  1  0
  1 17  1  0
  1 18  1  0
  1 19  1  0
  2 20  1  0
  2 21  1  0
  5 22  1  0
  5 23  1  0
  5 24  1  0
  8 25  1  0
  8 26  1  0
  9 27  1  0
  9 28  1  0
 10 29  1  1
 11 30  1  1
 12 31  1  0
 12 32  1  0
 12 33  1  0
 13 34  1  0
 13 35  1  0
 13 36  1  0
 14 37  1  6
 15 38  1  0
 15 39  1  0
 15 40  1  0
 16 41  1  0
 16 42  1  0
 16 43  1  0
M  CHG  1  10   1
M  END
$$$$
