VX
     RDKit          3D

 43 42  0  0  0  0  0  0  0  0999 V2000
    4.4489   -0.3053   -1.7498 C   0  0  0  0  0  0  0  0  0  0  0  0
    3.0925   -0.6083   -1.1488 C   0  0  0  0  0  0  0  0  0  0  0  0
    3.0148   -0.1980    0.2082 O   0  0  0  0  0  0  0  0  0  0  0  0
    2.8268    1.3663    0.5671 P   0  0  1  0  0  0  0  0  0  0  0  0
    4.0389    2.1175    1.6369 C   0  0  0  0  0  0  0  0  0  0  0  0
    1.6845    2.1842    0.0355 O   0  0  0  0  0  0  0  0  0  0  0  0
    1.5299    0.7786    2.4492 S   0  0  0  0  0  0  0  0  0  0  0  0
   -0.0940    0.4647    1.7025 C   0  0  0  0  0  0  0  0  0  0  0  0
   -1.1043    0.0811    2.7848 C   0  0  0  0  0  0  0  0  0  0  0  0
   -2.5581   -0.0570    2.2909 N   0  0  1  0  0  0  0  0  0  0  0  0
   -3.3866    1.2429    2.3244 C   0  0  2  0  0  0  0  0  0  0  0  0
   -2.8839    2.2884    1.3418 C   0  0  0  0  0  0  0  0  0  0  0  0
   -3.4795    1.7915    3.7494 C   0  0  0  0  0  0  0  0  0  0  0  0
   -2.7150   -0.9217    1.0188 C   0  0  1  0  0  0  0  0  0  0  0  0
   -2.1502   -2.3223    1.2809 C   0  0  0  0  0  0  0  0  0  0  0  0
   -4.1846   -1.0602    0.6154 C   0  0  0  0  0  0  0  0  0  0  0  0
    5.2534   -0.6675   -1.1022 H   0  0  0  0  0  0  0  0  0  0  0  0
    4.5474   -0.7713   -2.7348 H   0  0  0  0  0  0  0  0  0  0  0  0
    4.5871    0.7730   -1.8720 H   0  0  0  0  0  0  0  0  0  0  0  0
    2.9222   -1.6896   -1.1663 H   0  0  0  0  0  0  0  0  0  0  0  0
    2.2890   -0.1459   -1.7309 H   0  0  0  0  0  0  0  0  0  0  0  0
    4.4483    1.3803    2.3338 H   0  0  0  0  0  0  0  0  0  0  0  0
    4.8671    2.5450    1.0677 H   0  0  0  0  0  0  0  0  0  0  0  0
    3.5832    2.9229    2.2205 H   0  0  0  0  0  0  0  0  0  0  0  0
   -0.3955    1.3620    1.1635 H   0  0  0  0  0  0  0  0  0  0  0  0
    0.0310   -0.3365    0.9698 H   0  0  0  0  0  0  0  0  0  0  0  0
   -0.8481   -0.8900    3.2247 H   0  0  0  0  0  0  0  0  0  0  0  0
   -1.1068    0.8013    3.6061 H   0  0  0  0  0  0  0  0  0  0  0  0
   -3.0037   -0.6258    3.0241 H   0  0  0  0  0  0  0  0  0  0  0  0
   -4.4057    0.9560    2.0527 H   0  0  0  0  0  0  0  0  0  0  0  0
   -1.9549    2.7545    1.6822 H   0  0  0  0  0  0  0  0  0  0  0  0
   -2.7287    1.8735    0.3420 H   0  0  0  0  0  0  0  0  0  0  0  0
   -3.6209    3.0939    1.2482 H   0  0  0  0  0  0  0  0  0  0  0  0
   -3.7358    1.0037    4.4652 H   0  0  0  0  0  0  0  0  0  0  0  0
   -2.5521    2.2720    4.0745 H   0  0  0  0  0  0  0  0  0  0  0  0
   -4.2646    2.5545    3.8033 H   0  0  0  0  0  0  0  0  0  0  0  0
   -2.1617   -0.4257    0.2156 H   0  0  0  0  0  0  0  0  0  0  0  0
   -2.3086   -2.9692    0.4106 H   0  0  0  0  0  0  0  0  0  0  0  0
   -1.0731   -2.3096    1.4666 H   0  0  0  0  0  0  0  0  0  0  0  0
   -2.6377   -2.7945    2.1411 H   0  0  0  0  0  0  0  0  0  0  0  0
   -4.5844   -0.1208    0.2213 H   0  0  0  0  0  0  0  0  0  0  0  0
   -4.2971   -1.7988   -0.1864 H   0  0  0  0  0  0  0  0  0  0  0  0
   -4.8063   -1.3838    1.4570 H   0  0  0  0  0  0  0  0  0  0  0  0
  1  2  1  0
  2  3  1  0
  4  3  1  6
  4  5  1  0
  4  6  2  0
  4  7  1  0
  7  8  1  0
  8  9  1  0
  9 10  1  0
 10 11  1  0
 11 12  1  0
 11 13  1  0
 10 14  1  0
 14 15  1  0
 14 16  1  0
  1 17  1  0
  1 18  1  0
  1 19  1  0
  2 20  1  0
  2 21  1  0
  5 22  1  0
  5 23  1  0
  5 24  1  0
  8 25  1  0
  8 26  1  0
  9 27  1  0
  9 28  1  0
 10 29  1  6
 11 30  1  6
 12 31  1  0
 12 32  1  0
 12 33  1  0
 13 34  1  0
 13 35  1  0
 13 36  1  0
 14 37  1  1
 15 38  1  0
 15 39  1  0
 15 40  1  0
 16 41  1  0
 16 42  1  0
 16 43  1  0
M  CHG  1  10   1
M  END
$$$$
