VX
     RDKit          3D

 43 42  0  0  0  0  0  0  0  0999 V2000
    2.3834   -1.0810   -1.9201 C   0  0  0  0  0  0  0  0  0  0  0  0
    3.5184   -0.5463   -1.0712 C   0  0  0  0  0  0  0  0  0  0  0  0
    3.0165   -0.1960    0.2101 O   0  0  0  0  0  0  0  0  0  0  0  0
    2.8253    1.3657    0.5659 P   0  0  1  0  0  0  0  0  0  0  0  0
    4.0392    2.1155    1.6365 C   0  0  0  0  0  0  0  0  0  0  0  0
    1.6839    2.1849    0.0353 O   0  0  0  0  0  0  0  0  0  0  0  0
    1.5284    0.7780    2.4480 S   0  0  0  0  0  0  0  0  0  0  0  0
    0.7293    2.3365    2.9339 C   0  0  0  0  0  0  0  0  0  0  0  0
   -0.6754    2.1267    3.5207 C   0  0  0  0  0  0  0  0  0  0  0  0
   -1.5094    1.1053    2.7212 N   0  0  1  0  0  0  0  0  0  0  0  0
   -2.1679    0.0412    3.6353 C   0  0  2  0  0  0  0  0  0  0  0  0
   -1.0923   -0.8314    4.2945 C   0  0  0  0  0  0  0  0  0  0  0  0
   -3.1005   -0.8838    2.8480 C   0  0  0  0  0  0  0  0  0  0  0  0
   -2.4514    1.7367    1.6802 C   0  0  1  0  0  0  0  0  0  0  0  0
   -3.5750    2.5358    2.3377 C   0  0  0  0  0  0  0  0  0  0  0  0
   -1.6790    2.5816    0.6728 C   0  0  0  0  0  0  0  0  0  0  0  0
    1.6037   -0.3229   -2.0472 H   0  0  0  0  0  0  0  0  0  0  0  0
    1.9127   -1.9429   -1.4358 H   0  0  0  0  0  0  0  0  0  0  0  0
    2.7441   -1.3842   -2.9069 H   0  0  0  0  0  0  0  0  0  0  0  0
    3.9909    0.3136   -1.5568 H   0  0  0  0  0  0  0  0  0  0  0  0
    4.2822   -1.3174   -0.9339 H   0  0  0  0  0  0  0  0  0  0  0  0
    4.4389    1.3814    2.3419 H   0  0  0  0  0  0  0  0  0  0  0  0
    4.8721    2.5226    1.0571 H   0  0  0  0  0  0  0  0  0  0  0  0
    3.5912    2.9330    2.2083 H   0  0  0  0  0  0  0  0  0  0  0  0
    0.6756    2.9939    2.0643 H   0  0  0  0  0  0  0  0  0  0  0  0
    1.3644    2.8424    3.6683 H   0  0  0  0  0  0  0  0  0  0  0  0
   -0.5965    1.7737    4.5523 H   0  0  0  0  0  0  0  0  0  0  0  0
   -1.2215    3.0723    3.5619 H   0  0  0  0  0  0  0  0  0  0  0  0
   -0.8135    0.5722    2.1721 H   0  0  0  0  0  0  0  0  0  0  0  0
   -2.7322    0.5881    4.3986 H   0  0  0  0  0  0  0  0  0  0  0  0
   -1.5595   -1.5790    4.9459 H   0  0  0  0  0  0  0  0  0  0  0  0
   -0.5047   -1.3730    3.5456 H   0  0  0  0  0  0  0  0  0  0  0  0
   -0.4042   -0.2617    4.9233 H   0  0  0  0  0  0  0  0  0  0  0  0
   -3.9975   -0.3644    2.4991 H   0  0  0  0  0  0  0  0  0  0  0  0
   -3.4524   -1.7054    3.4824 H   0  0  0  0  0  0  0  0  0  0  0  0
   -2.5924   -1.3257    1.9840 H   0  0  0  0  0  0  0  0  0  0  0  0
   -2.8771    0.9034    1.1135 H   0  0  0  0  0  0  0  0  0  0  0  0
   -4.2933    2.8621    1.5768 H   0  0  0  0  0  0  0  0  0  0  0  0
   -3.2093    3.4374    2.8372 H   0  0  0  0  0  0  0  0  0  0  0  0
   -4.1303    1.9449    3.0708 H   0  0  0  0  0  0  0  0  0  0  0  0
   -0.8494    2.0168    0.2389 H   0  0  0  0  0  0  0  0  0  0  0  0
   -1.2929    3.5041    1.1155 H   0  0  0  0  0  0  0  0  0  0  0  0
   -2.3378    2.8768   -0.1518 H   0  0  0  0  0  0  0  0  0  0  0  0
  1  2  1  0
  2  3  1  0
  4  3  1  6
  4  5  1  0
  4  6  2  0
  4  7  1  0
  7  8  1  0
  8  9  1  0
  9 10  1  0
 10 11  1  0
 11 12  1  0
 11 13  1  0
 10 14  1  0
 14 15  1  0
 14 16  1  0
  1 17  1  0
  1 18  1  0
  1 19  1  0
  2 20  1  0
  2 21  1  0
  5 22  1  0
  5 23  1  0
  5 24  1  0
  8 25  1  0
  8 26  1  0
  9 27  1  0
  9 28  1  0
 10 29  1  1
 11 30  1  1
 12 31  1  0
 12 32  1  0
 12 33  1  0
 13 34  1  0
 13 35  1  0
 13 36  1  0
 14 37  1  1
 15 38  1  0
 15 39  1  0
 15 40  1  0
 16 41  1  0
 16 42  1  0
 16 43  1  0
M  CHG  1  10   1
M  END
$$$$
