VX
     RDKit          3D

 43 42  0  0  0  0  0  0  0  0999 V2000
    2.3513   -0.8554   -2.0093 C   0  0  0  0  0  0  0  0  0  0  0  0
    3.5086   -0.5432   -1.0800 C   0  0  0  0  0  0  0  0  0  0  0  0
    3.0102   -0.1991    0.2047 O   0  0  0  0  0  0  0  0  0  0  0  0
    2.8291    1.3667    0.5689 P   0  0  1  0  0  0  0  0  0  0  0  0
    4.0389    2.1218    1.6383 C   0  0  0  0  0  0  0  0  0  0  0  0
    1.6867    2.1808    0.0359 O   0  0  0  0  0  0  0  0  0  0  0  0
    1.5322    0.7790    2.4510 S   0  0  0  0  0  0  0  0  0  0  0  0
    0.1355   -0.0843    1.6862 C   0  0  0  0  0  0  0  0  0  0  0  0
   -1.2027   -0.0063    2.4225 C   0  0  0  0  0  0  0  0  0  0  0  0
   -1.2928   -0.5606    3.8520 N   0  0  2  0  0  0  0  0  0  0  0  0
   -0.7521    0.3638    4.9752 C   0  0  2  0  0  0  0  0  0  0  0  0
   -1.1850   -0.1647    6.3481 C   0  0  0  0  0  0  0  0  0  0  0  0
   -1.3003    1.7847    4.8173 C   0  0  0  0  0  0  0  0  0  0  0  0
   -0.9853   -2.0587    4.0348 C   0  0  1  0  0  0  0  0  0  0  0  0
   -1.6829   -2.9024    2.9677 C   0  0  0  0  0  0  0  0  0  0  0  0
    0.5038   -2.3691    4.1303 C   0  0  0  0  0  0  0  0  0  0  0  0
    1.7285   -1.6577   -1.5945 H   0  0  0  0  0  0  0  0  0  0  0  0
    2.7148   -1.1629   -2.9941 H   0  0  0  0  0  0  0  0  0  0  0  0
    1.7025    0.0175   -2.1357 H   0  0  0  0  0  0  0  0  0  0  0  0
    4.1343    0.2587   -1.4854 H   0  0  0  0  0  0  0  0  0  0  0  0
    4.1381   -1.4307   -0.9645 H   0  0  0  0  0  0  0  0  0  0  0  0
    4.8801    2.5138    1.0606 H   0  0  0  0  0  0  0  0  0  0  0  0
    3.5904    2.9531    2.1920 H   0  0  0  0  0  0  0  0  0  0  0  0
    4.4269    1.3979    2.3605 H   0  0  0  0  0  0  0  0  0  0  0  0
    0.4154   -1.1197    1.4771 H   0  0  0  0  0  0  0  0  0  0  0  0
   -0.0202    0.3769    0.7053 H   0  0  0  0  0  0  0  0  0  0  0  0
   -1.5776    1.0207    2.4374 H   0  0  0  0  0  0  0  0  0  0  0  0
   -1.9512   -0.5608    1.8450 H   0  0  0  0  0  0  0  0  0  0  0  0
   -2.3072   -0.5249    4.0202 H   0  0  0  0  0  0  0  0  0  0  0  0
    0.3368    0.3670    4.9171 H   0  0  0  0  0  0  0  0  0  0  0  0
   -0.6739   -1.0959    6.6021 H   0  0  0  0  0  0  0  0  0  0  0  0
   -2.2645   -0.3363    6.3916 H   0  0  0  0  0  0  0  0  0  0  0  0
   -0.9300    0.5493    7.1368 H   0  0  0  0  0  0  0  0  0  0  0  0
   -2.3888    1.7852    4.6988 H   0  0  0  0  0  0  0  0  0  0  0  0
   -0.8567    2.2997    3.9609 H   0  0  0  0  0  0  0  0  0  0  0  0
   -1.0617    2.3957    5.6973 H   0  0  0  0  0  0  0  0  0  0  0  0
   -1.4557   -2.3320    4.9853 H   0  0  0  0  0  0  0  0  0  0  0  0
   -2.7434   -2.6426    2.8897 H   0  0  0  0  0  0  0  0  0  0  0  0
   -1.6226   -3.9646    3.2301 H   0  0  0  0  0  0  0  0  0  0  0  0
   -1.2226   -2.7900    1.9815 H   0  0  0  0  0  0  0  0  0  0  0  0
    1.0147   -1.7503    4.8761 H   0  0  0  0  0  0  0  0  0  0  0  0
    1.0199   -2.2578    3.1758 H   0  0  0  0  0  0  0  0  0  0  0  0
    0.6433   -3.4136    4.4413 H   0  0  0  0  0  0  0  0  0  0  0  0
  1  2  1  0
  2  3  1  0
  4  3  1  6
  4  5  1  0
  4  6  2  0
  4  7  1  0
  7  8  1  0
  8  9  1  0
  9 10  1  0
 10 11  1  0
 11 12  1  0
 11 13  1  0
 10 14  1  0
 14 15  1  0
 14 16  1  0
  1 17  1  0
  1 18  1  0
  1 19  1  0
  2 20  1  0
  2 21  1  0
  5 22  1  0
  5 23  1  0
  5 24  1  0
  8 25  1  0
  8 26  1  0
  9 27  1  0
  9 28  1  0
 10 29  1  1
 11 30  1  1
 12 31  1  0
 12 32  1  0
 12 33  1  0
 13 34  1  0
 13 35  1  0
 13 36  1  0
 14 37  1  6
 15 38  1  0
 15 39  1  0
 15 40  1  0
 16 41  1  0
 16 42  1  0
 16 43  1  0
M  CHG  1  10   1
M  END
$$$$
