VX
     RDKit          3D

 43 42  0  0  0  0  0  0  0  0999 V2000
    3.4029   -1.9904   -1.3223 C   0  0  0  0  0  0  0  0  0  0  0  0
    3.6658   -0.5313   -1.0124 C   0  0  0  0  0  0  0  0  0  0  0  0
    2.9929   -0.1980    0.1932 O   0  0  0  0  0  0  0  0  0  0  0  0
    2.8410    1.3650    0.5765 P   0  0  1  0  0  0  0  0  0  0  0  0
    4.0399    2.1353    1.6432 C   0  0  0  0  0  0  0  0  0  0  0  0
    1.6912    2.1678    0.0349 O   0  0  0  0  0  0  0  0  0  0  0  0
    1.5441    0.7773    2.4586 S   0  0  0  0  0  0  0  0  0  0  0  0
    0.1423   -0.1430    1.7641 C   0  0  0  0  0  0  0  0  0  0  0  0
   -0.5669    0.6296    0.6396 C   0  0  0  0  0  0  0  0  0  0  0  0
   -1.9870    0.0756    0.3744 N   0  0  2  0  0  0  0  0  0  0  0  0
   -1.9489   -1.2920   -0.3198 C   0  0  1  0  0  0  0  0  0  0  0  0
   -3.0806   -2.1883    0.1777 C   0  0  0  0  0  0  0  0  0  0  0  0
   -1.8845   -1.2153   -1.8354 C   0  0  0  0  0  0  0  0  0  0  0  0
   -2.9210    1.1992   -0.1077 C   0  0  2  0  0  0  0  0  0  0  0  0
   -4.3730    0.7473   -0.1739 C   0  0  0  0  0  0  0  0  0  0  0  0
   -2.4659    1.8767   -1.3975 C   0  0  0  0  0  0  0  0  0  0  0  0
    3.9096   -2.2917   -2.2433 H   0  0  0  0  0  0  0  0  0  0  0  0
    2.3288   -2.1728   -1.4337 H   0  0  0  0  0  0  0  0  0  0  0  0
    3.7506   -2.6279   -0.5026 H   0  0  0  0  0  0  0  0  0  0  0  0
    4.7387   -0.3619   -0.8838 H   0  0  0  0  0  0  0  0  0  0  0  0
    3.3006    0.0972   -1.8302 H   0  0  0  0  0  0  0  0  0  0  0  0
    3.5754    2.9380    2.2231 H   0  0  0  0  0  0  0  0  0  0  0  0
    4.8586    2.5701    1.0634 H   0  0  0  0  0  0  0  0  0  0  0  0
    4.4622    1.4079    2.3421 H   0  0  0  0  0  0  0  0  0  0  0  0
   -0.5499   -0.3497    2.5865 H   0  0  0  0  0  0  0  0  0  0  0  0
    0.5206   -1.1015    1.3981 H   0  0  0  0  0  0  0  0  0  0  0  0
   -0.0275    0.5613   -0.3086 H   0  0  0  0  0  0  0  0  0  0  0  0
   -0.6939    1.6781    0.9291 H   0  0  0  0  0  0  0  0  0  0  0  0
   -2.3523   -0.1209    1.3154 H   0  0  0  0  0  0  0  0  0  0  0  0
   -1.0229   -1.7668    0.0196 H   0  0  0  0  0  0  0  0  0  0  0  0
   -4.0547   -1.9058   -0.2258 H   0  0  0  0  0  0  0  0  0  0  0  0
   -3.1429   -2.1847    1.2709 H   0  0  0  0  0  0  0  0  0  0  0  0
   -2.8996   -3.2232   -0.1349 H   0  0  0  0  0  0  0  0  0  0  0  0
   -1.0917   -0.5423   -2.1749 H   0  0  0  0  0  0  0  0  0  0  0  0
   -2.8361   -0.9046   -2.2736 H   0  0  0  0  0  0  0  0  0  0  0  0
   -1.6615   -2.2063   -2.2478 H   0  0  0  0  0  0  0  0  0  0  0  0
   -2.8671    1.9479    0.6939 H   0  0  0  0  0  0  0  0  0  0  0  0
   -4.5616    0.0892   -1.0259 H   0  0  0  0  0  0  0  0  0  0  0  0
   -5.0300    1.6162   -0.2951 H   0  0  0  0  0  0  0  0  0  0  0  0
   -4.6758    0.2382    0.7467 H   0  0  0  0  0  0  0  0  0  0  0  0
   -3.0287    2.8073   -1.5380 H   0  0  0  0  0  0  0  0  0  0  0  0
   -2.6532    1.2708   -2.2856 H   0  0  0  0  0  0  0  0  0  0  0  0
   -1.4070    2.1479   -1.3799 H   0  0  0  0  0  0  0  0  0  0  0  0
  1  2  1  0
  2  3  1  0
  4  3  1  6
  4  5  1  0
  4  6  2  0
  4  7  1  0
  7  8  1  0
  8  9  1  0
  9 10  1  0
 10 11  1  0
 11 12  1  0
 11 13  1  0
 10 14  1  0
 14 15  1  0
 14 16  1  0
  1 17  1  0
  1 18  1  0
  1 19  1  0
  2 20  1  0
  2 21  1  0
  5 22  1  0
  5 23  1  0
  5 24  1  0
  8 25  1  0
  8 26  1  0
  9 27  1  0
  9 28  1  0
 10 29  1  1
 11 30  1  6
 12 31  1  0
 12 32  1  0
 12 33  1  0
 13 34  1  0
 13 35  1  0
 13 36  1  0
 14 37  1  1
 15 38  1  0
 15 39  1  0
 15 40  1  0
 16 41  1  0
 16 42  1  0
 16 43  1  0
M  CHG  1  10   1
M  END
$$$$
