VX
     RDKit          3D

 43 42  0  0  0  0  0  0  0  0999 V2000
    3.3260   -1.9950   -1.3259 C   0  0  0  0  0  0  0  0  0  0  0  0
    3.5714   -0.5271   -1.0605 C   0  0  0  0  0  0  0  0  0  0  0  0
    3.0051   -0.1972    0.2018 O   0  0  0  0  0  0  0  0  0  0  0  0
    2.8321    1.3660    0.5707 P   0  0  1  0  0  0  0  0  0  0  0  0
    4.0388    2.1252    1.6393 C   0  0  0  0  0  0  0  0  0  0  0  0
    1.6889    2.1762    0.0359 O   0  0  0  0  0  0  0  0  0  0  0  0
    1.5352    0.7783    2.4528 S   0  0  0  0  0  0  0  0  0  0  0  0
    0.4341   -0.5277    1.8271 C   0  0  0  0  0  0  0  0  0  0  0  0
   -0.9631   -0.3683    2.4280 C   0  0  0  0  0  0  0  0  0  0  0  0
   -1.5908    0.9881    2.0634 N   0  0  1  0  0  0  0  0  0  0  0  0
   -2.2970    1.1080    0.6978 C   0  0  2  0  0  0  0  0  0  0  0  0
   -2.8986   -0.2057    0.2108 C   0  0  0  0  0  0  0  0  0  0  0  0
   -1.3446    1.7018   -0.3335 C   0  0  0  0  0  0  0  0  0  0  0  0
   -2.3673    1.5861    3.2478 C   0  0  2  0  0  0  0  0  0  0  0  0
   -3.7234    0.9144    3.4230 C   0  0  0  0  0  0  0  0  0  0  0  0
   -2.4688    3.1024    3.0988 C   0  0  0  0  0  0  0  0  0  0  0  0
    3.7181   -2.2880   -2.3007 H   0  0  0  0  0  0  0  0  0  0  0  0
    2.2550   -2.2158   -1.2949 H   0  0  0  0  0  0  0  0  0  0  0  0
    3.8003   -2.6117   -0.5537 H   0  0  0  0  0  0  0  0  0  0  0  0
    4.6434   -0.3225   -1.0369 H   0  0  0  0  0  0  0  0  0  0  0  0
    3.1100    0.0779   -1.8460 H   0  0  0  0  0  0  0  0  0  0  0  0
    4.8684    2.5484    1.0662 H   0  0  0  0  0  0  0  0  0  0  0  0
    3.5804    2.9295    2.2214 H   0  0  0  0  0  0  0  0  0  0  0  0
    4.4492    1.3882    2.3367 H   0  0  0  0  0  0  0  0  0  0  0  0
    0.8571   -1.4946    2.1145 H   0  0  0  0  0  0  0  0  0  0  0  0
    0.3986   -0.4979    0.7352 H   0  0  0  0  0  0  0  0  0  0  0  0
   -1.6390   -1.1693    2.1256 H   0  0  0  0  0  0  0  0  0  0  0  0
   -0.8907   -0.4185    3.5206 H   0  0  0  0  0  0  0  0  0  0  0  0
   -0.7649    1.6077    1.9964 H   0  0  0  0  0  0  0  0  0  0  0  0
   -3.1139    1.8222    0.8260 H   0  0  0  0  0  0  0  0  0  0  0  0
   -3.5628   -0.6491    0.9553 H   0  0  0  0  0  0  0  0  0  0  0  0
   -3.4929   -0.0341   -0.6915 H   0  0  0  0  0  0  0  0  0  0  0  0
   -2.1275   -0.9370   -0.0530 H   0  0  0  0  0  0  0  0  0  0  0  0
   -0.9104    2.6420    0.0244 H   0  0  0  0  0  0  0  0  0  0  0  0
   -0.5363    1.0135   -0.5887 H   0  0  0  0  0  0  0  0  0  0  0  0
   -1.8849    1.9225   -1.2614 H   0  0  0  0  0  0  0  0  0  0  0  0
   -1.7553    1.3967    4.1367 H   0  0  0  0  0  0  0  0  0  0  0  0
   -4.4039    1.1329    2.5966 H   0  0  0  0  0  0  0  0  0  0  0  0
   -3.6215   -0.1690    3.5066 H   0  0  0  0  0  0  0  0  0  0  0  0
   -4.2041    1.2720    4.3405 H   0  0  0  0  0  0  0  0  0  0  0  0
   -2.9018    3.5410    4.0041 H   0  0  0  0  0  0  0  0  0  0  0  0
   -1.4790    3.5492    2.9585 H   0  0  0  0  0  0  0  0  0  0  0  0
   -3.1001    3.4063    2.2616 H   0  0  0  0  0  0  0  0  0  0  0  0
  1  2  1  0
  2  3  1  0
  4  3  1  6
  4  5  1  0
  4  6  2  0
  4  7  1  0
  7  8  1  0
  8  9  1  0
  9 10  1  0
 10 11  1  0
 11 12  1  0
 11 13  1  0
 10 14  1  0
 14 15  1  0
 14 16  1  0
  1 17  1  0
  1 18  1  0
  1 19  1  0
  2 20  1  0
  2 21  1  0
  5 22  1  0
  5 23  1  0
  5 24  1  0
  8 25  1  0
  8 26  1  0
  9 27  1  0
  9 28  1  0
 10 29  1  1
 11 30  1  1
 12 31  1  0
 12 32  1  0
 12 33  1  0
 13 34  1  0
 13 35  1  0
 13 36  1  0
 14 37  1  1
 15 38  1  0
 15 39  1  0
 15 40  1  0
 16 41  1  0
 16 42  1  0
 16 43  1  0
M  CHG  1  10   1
M  END
$$$$
