VX
     RDKit          3D

 43 42  0  0  0  0  0  0  0  0999 V2000
    4.4985    1.3985    2.2601 C   0  0  0  0  0  0  0  0  0  0  0  0
    3.8399    1.2089    0.9108 C   0  0  0  0  0  0  0  0  0  0  0  0
    2.9836    0.0774    0.9812 O   0  0  0  0  0  0  0  0  0  0  0  0
    2.6933   -0.7411   -0.3820 P   0  0  2  0  0  0  0  0  0  0  0  0
    3.5453   -2.2740   -0.6864 C   0  0  0  0  0  0  0  0  0  0  0  0
    1.7120   -0.2156   -1.3880 O   0  0  0  0  0  0  0  0  0  0  0  0
    0.9566   -1.9206    0.6961 S   0  0  0  0  0  0  0  0  0  0  0  0
   -0.4878   -1.6740   -0.3871 C   0  0  0  0  0  0  0  0  0  0  0  0
   -1.0382   -0.2393   -0.3497 C   0  0  0  0  0  0  0  0  0  0  0  0
   -1.0393    0.3366    1.0903 N   0  0  2  0  0  0  0  0  0  0  0  0
   -2.4303    0.2896    1.7511 C   0  0  2  0  0  0  0  0  0  0  0  0
   -2.3687    0.7158    3.2153 C   0  0  0  0  0  0  0  0  0  0  0  0
   -3.0026   -1.1335    1.6967 C   0  0  0  0  0  0  0  0  0  0  0  0
   -0.2640    1.6713    1.1084 C   0  0  2  0  0  0  0  0  0  0  0  0
    0.4577    1.8917    2.4344 C   0  0  0  0  0  0  0  0  0  0  0  0
   -1.1417    2.8400    0.6821 C   0  0  0  0  0  0  0  0  0  0  0  0
    5.0785    0.5109    2.5310 H   0  0  0  0  0  0  0  0  0  0  0  0
    5.1631    2.2667    2.2503 H   0  0  0  0  0  0  0  0  0  0  0  0
    3.7454    1.5363    3.0441 H   0  0  0  0  0  0  0  0  0  0  0  0
    3.2363    2.0859    0.6546 H   0  0  0  0  0  0  0  0  0  0  0  0
    4.6003    1.0722    0.1367 H   0  0  0  0  0  0  0  0  0  0  0  0
    2.9188   -2.9458   -1.2789 H   0  0  0  0  0  0  0  0  0  0  0  0
    3.7909   -2.7742    0.2549 H   0  0  0  0  0  0  0  0  0  0  0  0
    4.4752   -2.1076   -1.2372 H   0  0  0  0  0  0  0  0  0  0  0  0
   -0.2259   -1.9473   -1.4145 H   0  0  0  0  0  0  0  0  0  0  0  0
   -1.2552   -2.3799   -0.0612 H   0  0  0  0  0  0  0  0  0  0  0  0
   -0.4406    0.4157   -0.9886 H   0  0  0  0  0  0  0  0  0  0  0  0
   -2.0597   -0.1859   -0.7397 H   0  0  0  0  0  0  0  0  0  0  0  0
   -0.4444   -0.3169    1.6273 H   0  0  0  0  0  0  0  0  0  0  0  0
   -3.0808    0.9661    1.1859 H   0  0  0  0  0  0  0  0  0  0  0  0
   -3.3092    0.4864    3.7275 H   0  0  0  0  0  0  0  0  0  0  0  0
   -1.5669    0.1988    3.7518 H   0  0  0  0  0  0  0  0  0  0  0  0
   -2.2353    1.7941    3.3149 H   0  0  0  0  0  0  0  0  0  0  0  0
   -2.3079   -1.8619    2.1297 H   0  0  0  0  0  0  0  0  0  0  0  0
   -3.9418   -1.1961    2.2604 H   0  0  0  0  0  0  0  0  0  0  0  0
   -3.2442   -1.4375    0.6758 H   0  0  0  0  0  0  0  0  0  0  0  0
    0.5379    1.5597    0.3703 H   0  0  0  0  0  0  0  0  0  0  0  0
    1.2258    2.6622    2.3066 H   0  0  0  0  0  0  0  0  0  0  0  0
    0.9615    0.9823    2.7754 H   0  0  0  0  0  0  0  0  0  0  0  0
   -0.1960    2.2444    3.2319 H   0  0  0  0  0  0  0  0  0  0  0  0
   -0.5371    3.7495    0.5822 H   0  0  0  0  0  0  0  0  0  0  0  0
   -1.6123    2.6496   -0.2890 H   0  0  0  0  0  0  0  0  0  0  0  0
   -1.9315    3.0546    1.4063 H   0  0  0  0  0  0  0  0  0  0  0  0
  1  2  1  0
  2  3  1  0
  4  3  1  1
  4  5  1  0
  4  6  2  0
  4  7  1  0
  7  8  1  0
  8  9  1  0
  9 10  1  0
 10 11  1  0
 11 12  1  0
 11 13  1  0
 10 14  1  0
 14 15  1  0
 14 16  1  0
  1 17  1  0
  1 18  1  0
  1 19  1  0
  2 20  1  0
  2 21  1  0
  5 22  1  0
  5 23  1  0
  5 24  1  0
  8 25  1  0
  8 26  1  0
  9 27  1  0
  9 28  1  0
 10 29  1  1
 11 30  1  6
 12 31  1  0
 12 32  1  0
 12 33  1  0
 13 34  1  0
 13 35  1  0
 13 36  1  0
 14 37  1  1
 15 38  1  0
 15 39  1  0
 15 40  1  0
 16 41  1  0
 16 42  1  0
 16 43  1  0
M  CHG  1  10   1
M  END
$$$$
