VX
     RDKit          3D

 43 42  0  0  0  0  0  0  0  0999 V2000
    3.9676    1.7895    2.3101 C   0  0  0  0  0  0  0  0  0  0  0  0
    3.8521    1.1947    0.9220 C   0  0  0  0  0  0  0  0  0  0  0  0
    2.9925    0.0662    0.9832 O   0  0  0  0  0  0  0  0  0  0  0  0
    2.6880   -0.7349   -0.3838 P   0  0  2  0  0  0  0  0  0  0  0  0
    3.5463   -2.2677   -0.6780 C   0  0  0  0  0  0  0  0  0  0  0  0
    1.7074   -0.2169   -1.3967 O   0  0  0  0  0  0  0  0  0  0  0  0
    0.9512   -1.9143    0.6943 S   0  0  0  0  0  0  0  0  0  0  0  0
   -0.2363   -0.5779    1.0538 C   0  0  0  0  0  0  0  0  0  0  0  0
   -1.2302   -0.3496   -0.0971 C   0  0  0  0  0  0  0  0  0  0  0  0
   -1.8083   -1.6592   -0.6571 N   0  0  2  0  0  0  0  0  0  0  0  0
   -2.0512   -1.5969   -2.1842 C   0  0  2  0  0  0  0  0  0  0  0  0
   -0.7278   -1.6700   -2.9386 C   0  0  0  0  0  0  0  0  0  0  0  0
   -2.8770   -0.3736   -2.5786 C   0  0  0  0  0  0  0  0  0  0  0  0
   -3.0229   -2.2726    0.0705 C   0  0  2  0  0  0  0  0  0  0  0  0
   -3.0560   -1.9865    1.5680 C   0  0  0  0  0  0  0  0  0  0  0  0
   -3.0062   -3.7932   -0.1331 C   0  0  0  0  0  0  0  0  0  0  0  0
    4.3681    1.0520    3.0135 H   0  0  0  0  0  0  0  0  0  0  0  0
    4.6220    2.6656    2.3062 H   0  0  0  0  0  0  0  0  0  0  0  0
    2.9826    2.0856    2.6860 H   0  0  0  0  0  0  0  0  0  0  0  0
    4.8378    0.8867    0.5622 H   0  0  0  0  0  0  0  0  0  0  0  0
    3.4346    1.9330    0.2306 H   0  0  0  0  0  0  0  0  0  0  0  0
    3.7877   -2.7645    0.2660 H   0  0  0  0  0  0  0  0  0  0  0  0
    2.9258   -2.9443   -1.2725 H   0  0  0  0  0  0  0  0  0  0  0  0
    4.4778   -2.0977   -1.2243 H   0  0  0  0  0  0  0  0  0  0  0  0
   -0.7479   -0.8258    1.9843 H   0  0  0  0  0  0  0  0  0  0  0  0
    0.3137    0.3487    1.2495 H   0  0  0  0  0  0  0  0  0  0  0  0
   -2.0674    0.2920    0.1953 H   0  0  0  0  0  0  0  0  0  0  0  0
   -0.7000    0.1527   -0.9099 H   0  0  0  0  0  0  0  0  0  0  0  0
   -1.0364   -2.3329   -0.5246 H   0  0  0  0  0  0  0  0  0  0  0  0
   -2.6189   -2.4936   -2.4459 H   0  0  0  0  0  0  0  0  0  0  0  0
   -0.1603   -0.7401   -2.8645 H   0  0  0  0  0  0  0  0  0  0  0  0
   -0.1039   -2.4937   -2.5773 H   0  0  0  0  0  0  0  0  0  0  0  0
   -0.9150   -1.8422   -4.0045 H   0  0  0  0  0  0  0  0  0  0  0  0
   -3.8103   -0.3108   -2.0119 H   0  0  0  0  0  0  0  0  0  0  0  0
   -3.1429   -0.4303   -3.6401 H   0  0  0  0  0  0  0  0  0  0  0  0
   -2.3293    0.5629   -2.4363 H   0  0  0  0  0  0  0  0  0  0  0  0
   -3.9192   -1.8405   -0.3853 H   0  0  0  0  0  0  0  0  0  0  0  0
   -3.9597   -2.4225    2.0108 H   0  0  0  0  0  0  0  0  0  0  0  0
   -2.2039   -2.4363    2.0863 H   0  0  0  0  0  0  0  0  0  0  0  0
   -3.0950   -0.9161    1.7862 H   0  0  0  0  0  0  0  0  0  0  0  0
   -2.0863   -4.2367    0.2641 H   0  0  0  0  0  0  0  0  0  0  0  0
   -3.0889   -4.0785   -1.1846 H   0  0  0  0  0  0  0  0  0  0  0  0
   -3.8512   -4.2579    0.3873 H   0  0  0  0  0  0  0  0  0  0  0  0
  1  2  1  0
  2  3  1  0
  4  3  1  1
  4  5  1  0
  4  6  2  0
  4  7  1  0
  7  8  1  0
  8  9  1  0
  9 10  1  0
 10 11  1  0
 11 12  1  0
 11 13  1  0
 10 14  1  0
 14 15  1  0
 14 16  1  0
  1 17  1  0
  1 18  1  0
  1 19  1  0
  2 20  1  0
  2 21  1  0
  5 22  1  0
  5 23  1  0
  5 24  1  0
  8 25  1  0
  8 26  1  0
  9 27  1  0
  9 28  1  0
 10 29  1  6
 11 30  1  6
 12 31  1  0
 12 32  1  0
 12 33  1  0
 13 34  1  0
 13 35  1  0
 13 36  1  0
 14 37  1  1
 15 38  1  0
 15 39  1  0
 15 40  1  0
 16 41  1  0
 16 42  1  0
 16 43  1  0
M  CHG  1  10   1
M  END
$$$$
