VX
     RDKit          3D

 43 42  0  0  0  0  0  0  0  0999 V2000
    3.0249    2.4601    1.0304 C   0  0  0  0  0  0  0  0  0  0  0  0
    3.8533    1.1956    0.9354 C   0  0  0  0  0  0  0  0  0  0  0  0
    2.9914    0.0680    0.9834 O   0  0  0  0  0  0  0  0  0  0  0  0
    2.6889   -0.7359   -0.3833 P   0  0  2  0  0  0  0  0  0  0  0  0
    3.5466   -2.2692   -0.6791 C   0  0  0  0  0  0  0  0  0  0  0  0
    1.7073   -0.2162   -1.3962 O   0  0  0  0  0  0  0  0  0  0  0  0
    0.9522   -1.9153    0.6948 S   0  0  0  0  0  0  0  0  0  0  0  0
   -0.3059   -0.6207    0.9306 C   0  0  0  0  0  0  0  0  0  0  0  0
   -1.0477   -0.2251   -0.3596 C   0  0  0  0  0  0  0  0  0  0  0  0
   -2.4460   -0.8749   -0.5042 N   0  0  1  0  0  0  0  0  0  0  0  0
   -2.3503   -2.4227   -0.6343 C   0  0  1  0  0  0  0  0  0  0  0  0
   -3.7195   -3.0968   -0.7202 C   0  0  0  0  0  0  0  0  0  0  0  0
   -1.5730   -2.7888   -1.9054 C   0  0  0  0  0  0  0  0  0  0  0  0
   -3.5249   -0.3555    0.4825 C   0  0  1  0  0  0  0  0  0  0  0  0
   -3.1665    0.9718    1.1603 C   0  0  0  0  0  0  0  0  0  0  0  0
   -4.8330   -0.1219   -0.2868 C   0  0  0  0  0  0  0  0  0  0  0  0
    3.6653    3.3471    1.0293 H   0  0  0  0  0  0  0  0  0  0  0  0
    2.3261    2.5311    0.1911 H   0  0  0  0  0  0  0  0  0  0  0  0
    2.4224    2.4602    1.9444 H   0  0  0  0  0  0  0  0  0  0  0  0
    4.5396    1.1307    1.7839 H   0  0  0  0  0  0  0  0  0  0  0  0
    4.4496    1.1963    0.0181 H   0  0  0  0  0  0  0  0  0  0  0  0
    2.9362   -2.9342   -1.2961 H   0  0  0  0  0  0  0  0  0  0  0  0
    4.4915   -2.0973   -1.2008 H   0  0  0  0  0  0  0  0  0  0  0  0
    3.7641   -2.7779    0.2641 H   0  0  0  0  0  0  0  0  0  0  0  0
   -0.9945   -0.9678    1.7059 H   0  0  0  0  0  0  0  0  0  0  0  0
    0.2165    0.2570    1.3267 H   0  0  0  0  0  0  0  0  0  0  0  0
   -0.5035   -0.4625   -1.2738 H   0  0  0  0  0  0  0  0  0  0  0  0
   -1.2081    0.8559   -0.3958 H   0  0  0  0  0  0  0  0  0  0  0  0
   -2.7566   -0.5521   -1.4308 H   0  0  0  0  0  0  0  0  0  0  0  0
   -1.8433   -2.7868    0.2630 H   0  0  0  0  0  0  0  0  0  0  0  0
   -4.2811   -2.7589   -1.5957 H   0  0  0  0  0  0  0  0  0  0  0  0
   -3.5971   -4.1821   -0.8193 H   0  0  0  0  0  0  0  0  0  0  0  0
   -4.3194   -2.9417    0.1808 H   0  0  0  0  0  0  0  0  0  0  0  0
   -1.5801   -3.8738   -2.0608 H   0  0  0  0  0  0  0  0  0  0  0  0
   -2.0180   -2.3217   -2.7913 H   0  0  0  0  0  0  0  0  0  0  0  0
   -0.5228   -2.4940   -1.8621 H   0  0  0  0  0  0  0  0  0  0  0  0
   -3.6443   -1.1210    1.2560 H   0  0  0  0  0  0  0  0  0  0  0  0
   -3.0029    1.7741    0.4326 H   0  0  0  0  0  0  0  0  0  0  0  0
   -2.2907    0.8938    1.8054 H   0  0  0  0  0  0  0  0  0  0  0  0
   -3.9894    1.2937    1.8094 H   0  0  0  0  0  0  0  0  0  0  0  0
   -4.6981    0.6272   -1.0748 H   0  0  0  0  0  0  0  0  0  0  0  0
   -5.6132    0.2461    0.3886 H   0  0  0  0  0  0  0  0  0  0  0  0
   -5.2303   -1.0219   -0.7560 H   0  0  0  0  0  0  0  0  0  0  0  0
  1  2  1  0
  2  3  1  0
  4  3  1  1
  4  5  1  0
  4  6  2  0
  4  7  1  0
  7  8  1  0
  8  9  1  0
  9 10  1  0
 10 11  1  0
 11 12  1  0
 11 13  1  0
 10 14  1  0
 14 15  1  0
 14 16  1  0
  1 17  1  0
  1 18  1  0
  1 19  1  0
  2 20  1  0
  2 21  1  0
  5 22  1  0
  5 23  1  0
  5 24  1  0
  8 25  1  0
  8 26  1  0
  9 27  1  0
  9 28  1  0
 10 29  1  1
 11 30  1  6
 12 31  1  0
 12 32  1  0
 12 33  1  0
 13 34  1  0
 13 35  1  0
 13 36  1  0
 14 37  1  1
 15 38  1  0
 15 39  1  0
 15 40  1  0
 16 41  1  0
 16 42  1  0
 16 43  1  0
M  CHG  1  10   1
M  END
$$$$
