VX
     RDKit          3D

 43 42  0  0  0  0  0  0  0  0999 V2000
    4.0696    1.7173    2.3225 C   0  0  0  0  0  0  0  0  0  0  0  0
    3.8056    1.2235    0.9153 C   0  0  0  0  0  0  0  0  0  0  0  0
    3.0030    0.0547    0.9877 O   0  0  0  0  0  0  0  0  0  0  0  0
    2.6809   -0.7274   -0.3870 P   0  0  2  0  0  0  0  0  0  0  0  0
    3.5476   -2.2615   -0.6691 C   0  0  0  0  0  0  0  0  0  0  0  0
    1.7027   -0.2192   -1.4067 O   0  0  0  0  0  0  0  0  0  0  0  0
    0.9441   -1.9069    0.6911 S   0  0  0  0  0  0  0  0  0  0  0  0
   -0.1150   -2.4509   -0.6892 C   0  0  0  0  0  0  0  0  0  0  0  0
   -1.4949   -2.8644   -0.1705 C   0  0  0  0  0  0  0  0  0  0  0  0
   -2.1632   -1.7757    0.6854 N   0  0  1  0  0  0  0  0  0  0  0  0
   -2.6569   -0.5191   -0.0787 C   0  0  2  0  0  0  0  0  0  0  0  0
   -3.1998   -0.8472   -1.4647 C   0  0  0  0  0  0  0  0  0  0  0  0
   -1.5845    0.5636   -0.1007 C   0  0  0  0  0  0  0  0  0  0  0  0
   -3.2593   -2.2695    1.6602 C   0  0  2  0  0  0  0  0  0  0  0  0
   -3.2844   -1.3343    2.8766 C   0  0  0  0  0  0  0  0  0  0  0  0
   -3.0391   -3.6989    2.1522 C   0  0  0  0  0  0  0  0  0  0  0  0
    4.6837    2.6220    2.3100 H   0  0  0  0  0  0  0  0  0  0  0  0
    4.5834    0.9494    2.9103 H   0  0  0  0  0  0  0  0  0  0  0  0
    3.1284    1.9358    2.8376 H   0  0  0  0  0  0  0  0  0  0  0  0
    4.7503    0.9939    0.4137 H   0  0  0  0  0  0  0  0  0  0  0  0
    3.2752    1.9894    0.3412 H   0  0  0  0  0  0  0  0  0  0  0  0
    3.7729   -2.7585    0.2787 H   0  0  0  0  0  0  0  0  0  0  0  0
    4.4883   -2.0879   -1.1980 H   0  0  0  0  0  0  0  0  0  0  0  0
    2.9380   -2.9376   -1.2753 H   0  0  0  0  0  0  0  0  0  0  0  0
    0.3681   -3.3025   -1.1788 H   0  0  0  0  0  0  0  0  0  0  0  0
   -0.2033   -1.6602   -1.4352 H   0  0  0  0  0  0  0  0  0  0  0  0
   -2.1823   -3.1532   -0.9697 H   0  0  0  0  0  0  0  0  0  0  0  0
   -1.3366   -3.7405    0.4617 H   0  0  0  0  0  0  0  0  0  0  0  0
   -1.3885   -1.4612    1.2936 H   0  0  0  0  0  0  0  0  0  0  0  0
   -3.4932   -0.1143    0.4999 H   0  0  0  0  0  0  0  0  0  0  0  0
   -3.9597   -1.6341   -1.4180 H   0  0  0  0  0  0  0  0  0  0  0  0
   -3.6750    0.0392   -1.8998 H   0  0  0  0  0  0  0  0  0  0  0  0
   -2.4130   -1.1583   -2.1580 H   0  0  0  0  0  0  0  0  0  0  0  0
   -1.1755    0.7416    0.8992 H   0  0  0  0  0  0  0  0  0  0  0  0
   -0.7636    0.3283   -0.7787 H   0  0  0  0  0  0  0  0  0  0  0  0
   -2.0173    1.5087   -0.4479 H   0  0  0  0  0  0  0  0  0  0  0  0
   -4.2090   -2.2238    1.1151 H   0  0  0  0  0  0  0  0  0  0  0  0
   -2.3295   -1.3590    3.4139 H   0  0  0  0  0  0  0  0  0  0  0  0
   -3.4865   -0.2946    2.6062 H   0  0  0  0  0  0  0  0  0  0  0  0
   -4.0691   -1.6401    3.5775 H   0  0  0  0  0  0  0  0  0  0  0  0
   -3.7841   -3.9593    2.9129 H   0  0  0  0  0  0  0  0  0  0  0  0
   -2.0501   -3.8260    2.6053 H   0  0  0  0  0  0  0  0  0  0  0  0
   -3.1617   -4.4258    1.3429 H   0  0  0  0  0  0  0  0  0  0  0  0
  1  2  1  0
  2  3  1  0
  4  3  1  1
  4  5  1  0
  4  6  2  0
  4  7  1  0
  7  8  1  0
  8  9  1  0
  9 10  1  0
 10 11  1  0
 11 12  1  0
 11 13  1  0
 10 14  1  0
 14 15  1  0
 14 16  1  0
  1 17  1  0
  1 18  1  0
  1 19  1  0
  2 20  1  0
  2 21  1  0
  5 22  1  0
  5 23  1  0
  5 24  1  0
  8 25  1  0
  8 26  1  0
  9 27  1  0
  9 28  1  0
 10 29  1  6
 11 30  1  1
 12 31  1  0
 12 32  1  0
 12 33  1  0
 13 34  1  0
 13 35  1  0
 13 36  1  0
 14 37  1  1
 15 38  1  0
 15 39  1  0
 15 40  1  0
 16 41  1  0
 16 42  1  0
 16 43  1  0
M  CHG  1  10   1
M  END
$$$$
