VX
     RDKit          3D

 43 42  0  0  0  0  0  0  0  0999 V2000
    4.5413    1.3879    2.2259 C   0  0  0  0  0  0  0  0  0  0  0  0
    3.8020    1.2313    0.9123 C   0  0  0  0  0  0  0  0  0  0  0  0
    2.9925    0.0661    0.9831 O   0  0  0  0  0  0  0  0  0  0  0  0
    2.6884   -0.7352   -0.3834 P   0  0  2  0  0  0  0  0  0  0  0  0
    3.5465   -2.2678   -0.6778 C   0  0  0  0  0  0  0  0  0  0  0  0
    1.7069   -0.2165   -1.3971 O   0  0  0  0  0  0  0  0  0  0  0  0
    0.9517   -1.9146    0.6947 S   0  0  0  0  0  0  0  0  0  0  0  0
   -0.1964   -0.5674    1.1353 C   0  0  0  0  0  0  0  0  0  0  0  0
   -1.6266   -0.8691    0.6730 C   0  0  0  0  0  0  0  0  0  0  0  0
   -1.6847   -1.3408   -0.7940 N   0  0  1  0  0  0  0  0  0  0  0  0
   -2.7477   -2.4251   -0.9873 C   0  0  1  0  0  0  0  0  0  0  0  0
   -4.1638   -1.9554   -0.6649 C   0  0  0  0  0  0  0  0  0  0  0  0
   -2.6604   -3.0894   -2.3528 C   0  0  0  0  0  0  0  0  0  0  0  0
   -1.5098   -0.1833   -1.7875 C   0  0  2  0  0  0  0  0  0  0  0  0
   -2.8015    0.5662   -2.0724 C   0  0  0  0  0  0  0  0  0  0  0  0
   -0.8189   -0.6444   -3.0700 C   0  0  0  0  0  0  0  0  0  0  0  0
    5.1778    0.5161    2.4122 H   0  0  0  0  0  0  0  0  0  0  0  0
    5.1663    2.2853    2.2186 H   0  0  0  0  0  0  0  0  0  0  0  0
    3.8370    1.4502    3.0635 H   0  0  0  0  0  0  0  0  0  0  0  0
    4.5174    1.1555    0.0877 H   0  0  0  0  0  0  0  0  0  0  0  0
    3.1527    2.0939    0.7331 H   0  0  0  0  0  0  0  0  0  0  0  0
    4.4868   -2.0963   -1.2081 H   0  0  0  0  0  0  0  0  0  0  0  0
    2.9342   -2.9405   -1.2855 H   0  0  0  0  0  0  0  0  0  0  0  0
    3.7723   -2.7696    0.2675 H   0  0  0  0  0  0  0  0  0  0  0  0
   -0.1780   -0.4357    2.2214 H   0  0  0  0  0  0  0  0  0  0  0  0
    0.1577    0.3680    0.6937 H   0  0  0  0  0  0  0  0  0  0  0  0
   -2.0341   -1.6753    1.2941 H   0  0  0  0  0  0  0  0  0  0  0  0
   -2.2760    0.0059    0.7718 H   0  0  0  0  0  0  0  0  0  0  0  0
   -0.7999   -1.8669   -0.8803 H   0  0  0  0  0  0  0  0  0  0  0  0
   -2.4789   -3.1942   -0.2511 H   0  0  0  0  0  0  0  0  0  0  0  0
   -4.5838   -1.3185   -1.4448 H   0  0  0  0  0  0  0  0  0  0  0  0
   -4.8291   -2.8228   -0.5809 H   0  0  0  0  0  0  0  0  0  0  0  0
   -4.2198   -1.4195    0.2862 H   0  0  0  0  0  0  0  0  0  0  0  0
   -3.2573   -4.0089   -2.3580 H   0  0  0  0  0  0  0  0  0  0  0  0
   -1.6321   -3.3695   -2.5997 H   0  0  0  0  0  0  0  0  0  0  0  0
   -3.0644   -2.4537   -3.1447 H   0  0  0  0  0  0  0  0  0  0  0  0
   -0.8249    0.5152   -1.2965 H   0  0  0  0  0  0  0  0  0  0  0  0
   -2.5832    1.5060   -2.5933 H   0  0  0  0  0  0  0  0  0  0  0  0
   -3.4668   -0.0027   -2.7277 H   0  0  0  0  0  0  0  0  0  0  0  0
   -3.3377    0.8235   -1.1546 H   0  0  0  0  0  0  0  0  0  0  0  0
   -0.0252   -1.3703   -2.8718 H   0  0  0  0  0  0  0  0  0  0  0  0
   -1.5146   -1.0826   -3.7884 H   0  0  0  0  0  0  0  0  0  0  0  0
   -0.3614    0.2169   -3.5710 H   0  0  0  0  0  0  0  0  0  0  0  0
  1  2  1  0
  2  3  1  0
  4  3  1  1
  4  5  1  0
  4  6  2  0
  4  7  1  0
  7  8  1  0
  8  9  1  0
  9 10  1  0
 10 11  1  0
 11 12  1  0
 11 13  1  0
 10 14  1  0
 14 15  1  0
 14 16  1  0
  1 17  1  0
  1 18  1  0
  1 19  1  0
  2 20  1  0
  2 21  1  0
  5 22  1  0
  5 23  1  0
  5 24  1  0
  8 25  1  0
  8 26  1  0
  9 27  1  0
  9 28  1  0
 10 29  1  6
 11 30  1  6
 12 31  1  0
 12 32  1  0
 12 33  1  0
 13 34  1  0
 13 35  1  0
 13 36  1  0
 14 37  1  6
 15 38  1  0
 15 39  1  0
 15 40  1  0
 16 41  1  0
 16 42  1  0
 16 43  1  0
M  CHG  1  10   1
M  END
$$$$
