VX
     RDKit          3D

 43 42  0  0  0  0  0  0  0  0999 V2000
    5.1349    0.8535    1.7173 C   0  0  0  0  0  0  0  0  0  0  0  0
    3.8661    1.1845    0.9507 C   0  0  0  0  0  0  0  0  0  0  0  0
    2.9934    0.0665    0.9851 O   0  0  0  0  0  0  0  0  0  0  0  0
    2.6868   -0.7342   -0.3849 P   0  0  2  0  0  0  0  0  0  0  0  0
    3.5463   -2.2678   -0.6781 C   0  0  0  0  0  0  0  0  0  0  0  0
    1.7077   -0.2178   -1.3973 O   0  0  0  0  0  0  0  0  0  0  0  0
    0.9501   -1.9137    0.6932 S   0  0  0  0  0  0  0  0  0  0  0  0
   -0.3728   -0.6814    0.7093 C   0  0  0  0  0  0  0  0  0  0  0  0
   -1.7149   -1.3184    1.0775 C   0  0  0  0  0  0  0  0  0  0  0  0
   -2.8577   -0.2798    0.9423 N   0  0  1  0  0  0  0  0  0  0  0  0
   -3.2664   -0.1692   -0.5471 C   0  0  2  0  0  0  0  0  0  0  0  0
   -3.5991    1.2753   -0.9111 C   0  0  0  0  0  0  0  0  0  0  0  0
   -4.3419   -1.1753   -0.9368 C   0  0  0  0  0  0  0  0  0  0  0  0
   -3.9851   -0.4662    1.9841 C   0  0  2  0  0  0  0  0  0  0  0  0
   -5.0117    0.6620    1.8842 C   0  0  0  0  0  0  0  0  0  0  0  0
   -3.4056   -0.4294    3.4063 C   0  0  0  0  0  0  0  0  0  0  0  0
    5.7972    1.7224    1.7653 H   0  0  0  0  0  0  0  0  0  0  0  0
    5.6742    0.0261    1.2410 H   0  0  0  0  0  0  0  0  0  0  0  0
    4.9000    0.5323    2.7382 H   0  0  0  0  0  0  0  0  0  0  0  0
    3.3502    2.0207    1.4303 H   0  0  0  0  0  0  0  0  0  0  0  0
    4.1021    1.4784   -0.0748 H   0  0  0  0  0  0  0  0  0  0  0  0
    4.4345   -2.1045   -1.2945 H   0  0  0  0  0  0  0  0  0  0  0  0
    3.8614   -2.7214    0.2652 H   0  0  0  0  0  0  0  0  0  0  0  0
    2.8969   -2.9801   -1.2026 H   0  0  0  0  0  0  0  0  0  0  0  0
   -0.1118    0.0998    1.4333 H   0  0  0  0  0  0  0  0  0  0  0  0
   -0.4185   -0.2137   -0.2768 H   0  0  0  0  0  0  0  0  0  0  0  0
   -1.6664   -1.6497    2.1134 H   0  0  0  0  0  0  0  0  0  0  0  0
   -1.9787   -2.1759    0.4461 H   0  0  0  0  0  0  0  0  0  0  0  0
   -2.4324    0.6236    1.1894 H   0  0  0  0  0  0  0  0  0  0  0  0
   -2.3690   -0.4197   -1.1208 H   0  0  0  0  0  0  0  0  0  0  0  0
   -2.8687    1.9678   -0.4783 H   0  0  0  0  0  0  0  0  0  0  0  0
   -4.5980    1.5810   -0.5924 H   0  0  0  0  0  0  0  0  0  0  0  0
   -3.5667    1.4095   -2.0003 H   0  0  0  0  0  0  0  0  0  0  0  0
   -4.0464   -2.1951   -0.6708 H   0  0  0  0  0  0  0  0  0  0  0  0
   -5.3060   -0.9693   -0.4699 H   0  0  0  0  0  0  0  0  0  0  0  0
   -4.5049   -1.1519   -2.0240 H   0  0  0  0  0  0  0  0  0  0  0  0
   -4.4488   -1.4425    1.7958 H   0  0  0  0  0  0  0  0  0  0  0  0
   -4.5292    1.6438    1.9019 H   0  0  0  0  0  0  0  0  0  0  0  0
   -5.6285    0.5881    0.9910 H   0  0  0  0  0  0  0  0  0  0  0  0
   -5.7126    0.6270    2.7257 H   0  0  0  0  0  0  0  0  0  0  0  0
   -2.7029    0.3996    3.5364 H   0  0  0  0  0  0  0  0  0  0  0  0
   -2.8989   -1.3581    3.6658 H   0  0  0  0  0  0  0  0  0  0  0  0
   -4.2030   -0.3135    4.1499 H   0  0  0  0  0  0  0  0  0  0  0  0
  1  2  1  0
  2  3  1  0
  4  3  1  1
  4  5  1  0
  4  6  2  0
  4  7  1  0
  7  8  1  0
  8  9  1  0
  9 10  1  0
 10 11  1  0
 11 12  1  0
 11 13  1  0
 10 14  1  0
 14 15  1  0
 14 16  1  0
  1 17  1  0
  1 18  1  0
  1 19  1  0
  2 20  1  0
  2 21  1  0
  5 22  1  0
  5 23  1  0
  5 24  1  0
  8 25  1  0
  8 26  1  0
  9 27  1  0
  9 28  1  0
 10 29  1  6
 11 30  1  6
 12 31  1  0
 12 32  1  0
 12 33  1  0
 13 34  1  0
 13 35  1  0
 13 36  1  0
 14 37  1  1
 15 38  1  0
 15 39  1  0
 15 40  1  0
 16 41  1  0
 16 42  1  0
 16 43  1  0
M  CHG  1  10   1
M  END
$$$$
