VX
     RDKit          3D

 43 42  0  0  0  0  0  0  0  0999 V2000
    3.9018    1.8356    2.2953 C   0  0  0  0  0  0  0  0  0  0  0  0
    3.8997    1.1560    0.9416 C   0  0  0  0  0  0  0  0  0  0  0  0
    2.9938    0.0642    0.9832 O   0  0  0  0  0  0  0  0  0  0  0  0
    2.6873   -0.7337   -0.3836 P   0  0  2  0  0  0  0  0  0  0  0  0
    3.5470   -2.2674   -0.6764 C   0  0  0  0  0  0  0  0  0  0  0  0
    1.7061   -0.2165   -1.3984 O   0  0  0  0  0  0  0  0  0  0  0  0
    0.9505   -1.9132    0.6945 S   0  0  0  0  0  0  0  0  0  0  0  0
    0.0537   -2.8087   -0.6133 C   0  0  0  0  0  0  0  0  0  0  0  0
   -0.6845   -1.8986   -1.6060 C   0  0  0  0  0  0  0  0  0  0  0  0
   -1.4515   -0.7646   -0.9181 N   0  0  2  0  0  0  0  0  0  0  0  0
   -2.7890   -1.1087   -0.2439 C   0  0  2  0  0  0  0  0  0  0  0  0
   -2.5695   -1.4149    1.2357 C   0  0  0  0  0  0  0  0  0  0  0  0
   -3.5417   -2.2383   -0.9403 C   0  0  0  0  0  0  0  0  0  0  0  0
   -1.4656    0.5070   -1.7867 C   0  0  1  0  0  0  0  0  0  0  0  0
   -2.4892    0.4072   -2.9107 C   0  0  0  0  0  0  0  0  0  0  0  0
   -1.6696    1.7405   -0.9087 C   0  0  0  0  0  0  0  0  0  0  0  0
    2.8994    2.1975    2.5468 H   0  0  0  0  0  0  0  0  0  0  0  0
    4.1915    1.1303    3.0813 H   0  0  0  0  0  0  0  0  0  0  0  0
    4.5944    2.6817    2.3063 H   0  0  0  0  0  0  0  0  0  0  0  0
    4.9023    0.7874    0.7056 H   0  0  0  0  0  0  0  0  0  0  0  0
    3.5888    1.8644    0.1673 H   0  0  0  0  0  0  0  0  0  0  0  0
    4.4763   -2.0952   -1.2254 H   0  0  0  0  0  0  0  0  0  0  0  0
    2.9269   -2.9463   -1.2691 H   0  0  0  0  0  0  0  0  0  0  0  0
    3.7915   -2.7622    0.2679 H   0  0  0  0  0  0  0  0  0  0  0  0
    0.7631   -3.4428   -1.1549 H   0  0  0  0  0  0  0  0  0  0  0  0
   -0.6601   -3.4783   -0.1246 H   0  0  0  0  0  0  0  0  0  0  0  0
    0.0406   -1.4488   -2.2893 H   0  0  0  0  0  0  0  0  0  0  0  0
   -1.3773   -2.4631   -2.2359 H   0  0  0  0  0  0  0  0  0  0  0  0
   -0.8118   -0.5019   -0.1512 H   0  0  0  0  0  0  0  0  0  0  0  0
   -3.4095   -0.2099   -0.2936 H   0  0  0  0  0  0  0  0  0  0  0  0
   -2.0078   -0.6147    1.7293 H   0  0  0  0  0  0  0  0  0  0  0  0
   -2.0431   -2.3604    1.3871 H   0  0  0  0  0  0  0  0  0  0  0  0
   -3.5341   -1.4990    1.7489 H   0  0  0  0  0  0  0  0  0  0  0  0
   -3.0335   -3.2016   -0.8319 H   0  0  0  0  0  0  0  0  0  0  0  0
   -3.6855   -2.0368   -2.0055 H   0  0  0  0  0  0  0  0  0  0  0  0
   -4.5373   -2.3529   -0.4965 H   0  0  0  0  0  0  0  0  0  0  0  0
   -0.4666    0.5918   -2.2269 H   0  0  0  0  0  0  0  0  0  0  0  0
   -2.4005    1.2730   -3.5766 H   0  0  0  0  0  0  0  0  0  0  0  0
   -2.3321   -0.4900   -3.5175 H   0  0  0  0  0  0  0  0  0  0  0  0
   -3.5166    0.3958   -2.5351 H   0  0  0  0  0  0  0  0  0  0  0  0
   -2.6744    1.7921   -0.4798 H   0  0  0  0  0  0  0  0  0  0  0  0
   -1.5256    2.6505   -1.5017 H   0  0  0  0  0  0  0  0  0  0  0  0
   -0.9449    1.7646   -0.0880 H   0  0  0  0  0  0  0  0  0  0  0  0
  1  2  1  0
  2  3  1  0
  4  3  1  1
  4  5  1  0
  4  6  2  0
  4  7  1  0
  7  8  1  0
  8  9  1  0
  9 10  1  0
 10 11  1  0
 11 12  1  0
 11 13  1  0
 10 14  1  0
 14 15  1  0
 14 16  1  0
  1 17  1  0
  1 18  1  0
  1 19  1  0
  2 20  1  0
  2 21  1  0
  5 22  1  0
  5 23  1  0
  5 24  1  0
  8 25  1  0
  8 26  1  0
  9 27  1  0
  9 28  1  0
 10 29  1  1
 11 30  1  1
 12 31  1  0
 12 32  1  0
 12 33  1  0
 13 34  1  0
 13 35  1  0
 13 36  1  0
 14 37  1  6
 15 38  1  0
 15 39  1  0
 15 40  1  0
 16 41  1  0
 16 42  1  0
 16 43  1  0
M  CHG  1  10   1
M  END
$$$$
