VX
     RDKit          3D

 43 42  0  0  0  0  0  0  0  0999 V2000
    4.0753    1.7267    2.3126 C   0  0  0  0  0  0  0  0  0  0  0  0
    3.8196    1.2191    0.9083 C   0  0  0  0  0  0  0  0  0  0  0  0
    2.9941    0.0664    0.9860 O   0  0  0  0  0  0  0  0  0  0  0  0
    2.6869   -0.7342   -0.3847 P   0  0  2  0  0  0  0  0  0  0  0  0
    3.5469   -2.2683   -0.6777 C   0  0  0  0  0  0  0  0  0  0  0  0
    1.7064   -0.2173   -1.3988 O   0  0  0  0  0  0  0  0  0  0  0  0
    0.9502   -1.9136    0.6934 S   0  0  0  0  0  0  0  0  0  0  0  0
   -0.4047   -0.7078    0.6327 C   0  0  0  0  0  0  0  0  0  0  0  0
   -1.6583   -1.2769    1.2942 C   0  0  0  0  0  0  0  0  0  0  0  0
   -2.7794   -0.2398    1.4862 N   0  0  2  0  0  0  0  0  0  0  0  0
   -3.9546   -0.7337    2.3783 C   0  0  1  0  0  0  0  0  0  0  0  0
   -3.5209   -1.7407    3.4434 C   0  0  0  0  0  0  0  0  0  0  0  0
   -4.5792    0.4796    3.0798 C   0  0  0  0  0  0  0  0  0  0  0  0
   -3.3364    0.4066    0.1932 C   0  0  2  0  0  0  0  0  0  0  0  0
   -3.4825   -0.5932   -0.9485 C   0  0  0  0  0  0  0  0  0  0  0  0
   -2.5337    1.6502   -0.1754 C   0  0  0  0  0  0  0  0  0  0  0  0
    3.1317    1.9562    2.8193 H   0  0  0  0  0  0  0  0  0  0  0  0
    4.6947    2.6276    2.2946 H   0  0  0  0  0  0  0  0  0  0  0  0
    4.5806    0.9617    2.9125 H   0  0  0  0  0  0  0  0  0  0  0  0
    4.7664    0.9671    0.4224 H   0  0  0  0  0  0  0  0  0  0  0  0
    3.3096    1.9871    0.3184 H   0  0  0  0  0  0  0  0  0  0  0  0
    3.7734   -2.7726    0.2665 H   0  0  0  0  0  0  0  0  0  0  0  0
    4.4865   -2.0970   -1.2092 H   0  0  0  0  0  0  0  0  0  0  0  0
    2.9331   -2.9389   -1.2862 H   0  0  0  0  0  0  0  0  0  0  0  0
   -0.5804   -0.4820   -0.4190 H   0  0  0  0  0  0  0  0  0  0  0  0
   -0.0785    0.2051    1.1401 H   0  0  0  0  0  0  0  0  0  0  0  0
   -2.0816   -2.1257    0.7477 H   0  0  0  0  0  0  0  0  0  0  0  0
   -1.3727   -1.6025    2.2978 H   0  0  0  0  0  0  0  0  0  0  0  0
   -2.3422    0.5179    2.0291 H   0  0  0  0  0  0  0  0  0  0  0  0
   -4.6796   -1.2116    1.7095 H   0  0  0  0  0  0  0  0  0  0  0  0
   -2.7304   -1.3382    4.0854 H   0  0  0  0  0  0  0  0  0  0  0  0
   -4.3678   -1.9988    4.0896 H   0  0  0  0  0  0  0  0  0  0  0  0
   -3.1777   -2.6790    2.9967 H   0  0  0  0  0  0  0  0  0  0  0  0
   -5.4205    0.1659    3.7080 H   0  0  0  0  0  0  0  0  0  0  0  0
   -4.9682    1.2205    2.3769 H   0  0  0  0  0  0  0  0  0  0  0  0
   -3.8506    0.9824    3.7259 H   0  0  0  0  0  0  0  0  0  0  0  0
   -4.3439    0.7583    0.4352 H   0  0  0  0  0  0  0  0  0  0  0  0
   -4.0447   -1.4786   -0.6348 H   0  0  0  0  0  0  0  0  0  0  0  0
   -2.5214   -0.9207   -1.3514 H   0  0  0  0  0  0  0  0  0  0  0  0
   -4.0337   -0.1341   -1.7767 H   0  0  0  0  0  0  0  0  0  0  0  0
   -1.5273    1.4251   -0.5303 H   0  0  0  0  0  0  0  0  0  0  0  0
   -3.0396    2.1941   -0.9816 H   0  0  0  0  0  0  0  0  0  0  0  0
   -2.4515    2.3329    0.6775 H   0  0  0  0  0  0  0  0  0  0  0  0
  1  2  1  0
  2  3  1  0
  4  3  1  1
  4  5  1  0
  4  6  2  0
  4  7  1  0
  7  8  1  0
  8  9  1  0
  9 10  1  0
 10 11  1  0
 11 12  1  0
 11 13  1  0
 10 14  1  0
 14 15  1  0
 14 16  1  0
  1 17  1  0
  1 18  1  0
  1 19  1  0
  2 20  1  0
  2 21  1  0
  5 22  1  0
  5 23  1  0
  5 24  1  0
  8 25  1  0
  8 26  1  0
  9 27  1  0
  9 28  1  0
 10 29  1  1
 11 30  1  1
 12 31  1  0
 12 32  1  0
 12 33  1  0
 13 34  1  0
 13 35  1  0
 13 36  1  0
 14 37  1  6
 15 38  1  0
 15 39  1  0
 15 40  1  0
 16 41  1  0
 16 42  1  0
 16 43  1  0
M  CHG  1  10   1
M  END
$$$$
