VX
     RDKit          3D

 43 42  0  0  0  0  0  0  0  0999 V2000
    4.0275    1.7340    2.3330 C   0  0  0  0  0  0  0  0  0  0  0  0
    3.8438    1.2025    0.9258 C   0  0  0  0  0  0  0  0  0  0  0  0
    2.9955    0.0641    0.9857 O   0  0  0  0  0  0  0  0  0  0  0  0
    2.6863   -0.7335   -0.3849 P   0  0  2  0  0  0  0  0  0  0  0  0
    3.5465   -2.2662   -0.6760 C   0  0  0  0  0  0  0  0  0  0  0  0
    1.7059   -0.2177   -1.4000 O   0  0  0  0  0  0  0  0  0  0  0  0
    0.9496   -1.9130    0.6932 S   0  0  0  0  0  0  0  0  0  0  0  0
   -0.1366   -0.5495    1.2262 C   0  0  0  0  0  0  0  0  0  0  0  0
   -1.5659   -1.0217    1.5271 C   0  0  0  0  0  0  0  0  0  0  0  0
   -2.0940   -2.0270    0.4849 N   0  0  2  0  0  0  0  0  0  0  0  0
   -2.8940   -1.3802   -0.6699 C   0  0  1  0  0  0  0  0  0  0  0  0
   -2.1373   -0.2067   -1.2902 C   0  0  0  0  0  0  0  0  0  0  0  0
   -3.1755   -2.4115   -1.7669 C   0  0  0  0  0  0  0  0  0  0  0  0
   -2.8030   -3.2411    1.1263 C   0  0  1  0  0  0  0  0  0  0  0  0
   -1.8115   -4.0933    1.9229 C   0  0  0  0  0  0  0  0  0  0  0  0
   -4.0040   -2.8093    1.9643 C   0  0  0  0  0  0  0  0  0  0  0  0
    4.4839    0.9709    2.9742 H   0  0  0  0  0  0  0  0  0  0  0  0
    3.0614    1.9865    2.7831 H   0  0  0  0  0  0  0  0  0  0  0  0
    4.6651    2.6239    2.3390 H   0  0  0  0  0  0  0  0  0  0  0  0
    3.3818    1.9642    0.2899 H   0  0  0  0  0  0  0  0  0  0  0  0
    4.8119    0.9214    0.4984 H   0  0  0  0  0  0  0  0  0  0  0  0
    2.9217   -2.9496   -1.2606 H   0  0  0  0  0  0  0  0  0  0  0  0
    4.4736   -2.0978   -1.2305 H   0  0  0  0  0  0  0  0  0  0  0  0
    3.7930   -2.7594    0.2686 H   0  0  0  0  0  0  0  0  0  0  0  0
   -0.1377    0.2211    0.4519 H   0  0  0  0  0  0  0  0  0  0  0  0
    0.2973   -0.0895    2.1214 H   0  0  0  0  0  0  0  0  0  0  0  0
   -1.5643   -1.5093    2.5059 H   0  0  0  0  0  0  0  0  0  0  0  0
   -2.2742   -0.1890    1.5866 H   0  0  0  0  0  0  0  0  0  0  0  0
   -1.2404   -2.4160    0.0503 H   0  0  0  0  0  0  0  0  0  0  0  0
   -3.8331   -1.0153   -0.2428 H   0  0  0  0  0  0  0  0  0  0  0  0
   -2.0579    0.6360   -0.5961 H   0  0  0  0  0  0  0  0  0  0  0  0
   -2.6745    0.1766   -2.1683 H   0  0  0  0  0  0  0  0  0  0  0  0
   -1.1360   -0.4984   -1.6208 H   0  0  0  0  0  0  0  0  0  0  0  0
   -3.9329   -3.1392   -1.4599 H   0  0  0  0  0  0  0  0  0  0  0  0
   -3.5729   -1.9266   -2.6657 H   0  0  0  0  0  0  0  0  0  0  0  0
   -2.2672   -2.9506   -2.0523 H   0  0  0  0  0  0  0  0  0  0  0  0
   -3.1489   -3.8755    0.3061 H   0  0  0  0  0  0  0  0  0  0  0  0
   -2.3084   -4.9995    2.2931 H   0  0  0  0  0  0  0  0  0  0  0  0
   -1.4035   -3.5750    2.7966 H   0  0  0  0  0  0  0  0  0  0  0  0
   -0.9779   -4.4168    1.2916 H   0  0  0  0  0  0  0  0  0  0  0  0
   -4.5020   -3.6864    2.3928 H   0  0  0  0  0  0  0  0  0  0  0  0
   -3.7226   -2.1578    2.7973 H   0  0  0  0  0  0  0  0  0  0  0  0
   -4.7472   -2.2828    1.3575 H   0  0  0  0  0  0  0  0  0  0  0  0
  1  2  1  0
  2  3  1  0
  4  3  1  1
  4  5  1  0
  4  6  2  0
  4  7  1  0
  7  8  1  0
  8  9  1  0
  9 10  1  0
 10 11  1  0
 11 12  1  0
 11 13  1  0
 10 14  1  0
 14 15  1  0
 14 16  1  0
  1 17  1  0
  1 18  1  0
  1 19  1  0
  2 20  1  0
  2 21  1  0
  5 22  1  0
  5 23  1  0
  5 24  1  0
  8 25  1  0
  8 26  1  0
  9 27  1  0
  9 28  1  0
 10 29  1  6
 11 30  1  6
 12 31  1  0
 12 32  1  0
 12 33  1  0
 13 34  1  0
 13 35  1  0
 13 36  1  0
 14 37  1  6
 15 38  1  0
 15 39  1  0
 15 40  1  0
 16 41  1  0
 16 42  1  0
 16 43  1  0
M  CHG  1  10   1
M  END
$$$$
