VX
     RDKit          3D

 43 42  0  0  0  0  0  0  0  0999 V2000
    3.7546    0.4129    3.2080 C   0  0  0  0  0  0  0  0  0  0  0  0
    3.3071   -0.6081    2.1810 C   0  0  0  0  0  0  0  0  0  0  0  0
    2.9849    0.0759    0.9816 O   0  0  0  0  0  0  0  0  0  0  0  0
    2.6929   -0.7397   -0.3811 P   0  0  2  0  0  0  0  0  0  0  0  0
    3.5474   -2.2757   -0.6849 C   0  0  0  0  0  0  0  0  0  0  0  0
    1.7090   -0.2138   -1.3907 O   0  0  0  0  0  0  0  0  0  0  0  0
    0.9562   -1.9192    0.6970 S   0  0  0  0  0  0  0  0  0  0  0  0
   -0.3746   -0.6809    0.7687 C   0  0  0  0  0  0  0  0  0  0  0  0
   -1.1530   -0.6167   -0.5540 C   0  0  0  0  0  0  0  0  0  0  0  0
   -2.1566    0.5497   -0.6532 N   0  0  2  0  0  0  0  0  0  0  0  0
   -1.5751    1.8533   -1.2387 C   0  0  1  0  0  0  0  0  0  0  0  0
   -0.5119    2.4764   -0.3494 C   0  0  0  0  0  0  0  0  0  0  0  0
   -1.0900    1.6405   -2.6731 C   0  0  0  0  0  0  0  0  0  0  0  0
   -3.0701    0.7084    0.5793 C   0  0  1  0  0  0  0  0  0  0  0  0
   -4.0617    1.8590    0.3989 C   0  0  0  0  0  0  0  0  0  0  0  0
   -3.8657   -0.5835    0.7925 C   0  0  0  0  0  0  0  0  0  0  0  0
    3.9705   -0.0663    4.1673 H   0  0  0  0  0  0  0  0  0  0  0  0
    2.9822    1.1764    3.3581 H   0  0  0  0  0  0  0  0  0  0  0  0
    4.6555    0.9350    2.8621 H   0  0  0  0  0  0  0  0  0  0  0  0
    4.1073   -1.3332    2.0045 H   0  0  0  0  0  0  0  0  0  0  0  0
    2.4202   -1.1349    2.5458 H   0  0  0  0  0  0  0  0  0  0  0  0
    4.5225   -2.0856   -1.1434 H   0  0  0  0  0  0  0  0  0  0  0  0
    3.7037   -2.8423    0.2360 H   0  0  0  0  0  0  0  0  0  0  0  0
    2.9648   -2.9002   -1.3694 H   0  0  0  0  0  0  0  0  0  0  0  0
    0.0700    0.2758    1.0437 H   0  0  0  0  0  0  0  0  0  0  0  0
   -1.0342   -0.9763    1.5878 H   0  0  0  0  0  0  0  0  0  0  0  0
   -1.7488   -1.5278   -0.6813 H   0  0  0  0  0  0  0  0  0  0  0  0
   -0.5074   -0.5584   -1.4290 H   0  0  0  0  0  0  0  0  0  0  0  0
   -2.8003    0.2445   -1.3953 H   0  0  0  0  0  0  0  0  0  0  0  0
   -2.4180    2.5447   -1.3208 H   0  0  0  0  0  0  0  0  0  0  0  0
    0.4206    1.9066   -0.3652 H   0  0  0  0  0  0  0  0  0  0  0  0
   -0.2702    3.4838   -0.7075 H   0  0  0  0  0  0  0  0  0  0  0  0
   -0.8506    2.5724    0.6866 H   0  0  0  0  0  0  0  0  0  0  0  0
   -1.8421    1.1187   -3.2742 H   0  0  0  0  0  0  0  0  0  0  0  0
   -0.9050    2.6100   -3.1513 H   0  0  0  0  0  0  0  0  0  0  0  0
   -0.1535    1.0794   -2.7286 H   0  0  0  0  0  0  0  0  0  0  0  0
   -2.4268    0.9130    1.4400 H   0  0  0  0  0  0  0  0  0  0  0  0
   -3.5667    2.8341    0.4405 H   0  0  0  0  0  0  0  0  0  0  0  0
   -4.8019    1.8607    1.2076 H   0  0  0  0  0  0  0  0  0  0  0  0
   -4.6028    1.7780   -0.5505 H   0  0  0  0  0  0  0  0  0  0  0  0
   -4.5695   -0.4673    1.6250 H   0  0  0  0  0  0  0  0  0  0  0  0
   -3.2234   -1.4322    1.0436 H   0  0  0  0  0  0  0  0  0  0  0  0
   -4.4419   -0.8483   -0.1010 H   0  0  0  0  0  0  0  0  0  0  0  0
  1  2  1  0
  2  3  1  0
  4  3  1  1
  4  5  1  0
  4  6  2  0
  4  7  1  0
  7  8  1  0
  8  9  1  0
  9 10  1  0
 10 11  1  0
 11 12  1  0
 11 13  1  0
 10 14  1  0
 14 15  1  0
 14 16  1  0
  1 17  1  0
  1 18  1  0
  1 19  1  0
  2 20  1  0
  2 21  1  0
  5 22  1  0
  5 23  1  0
  5 24  1  0
  8 25  1  0
  8 26  1  0
  9 27  1  0
  9 28  1  0
 10 29  1  6
 11 30  1  1
 12 31  1  0
 12 32  1  0
 12 33  1  0
 13 34  1  0
 13 35  1  0
 13 36  1  0
 14 37  1  1
 15 38  1  0
 15 39  1  0
 15 40  1  0
 16 41  1  0
 16 42  1  0
 16 43  1  0
M  CHG  1  10   1
M  END
$$$$
