VX
     RDKit          3D

 43 42  0  0  0  0  0  0  0  0999 V2000
    4.0000    1.7749    2.3090 C   0  0  0  0  0  0  0  0  0  0  0  0
    3.8510    1.1969    0.9170 C   0  0  0  0  0  0  0  0  0  0  0  0
    2.9929    0.0676    0.9855 O   0  0  0  0  0  0  0  0  0  0  0  0
    2.6877   -0.7351   -0.3844 P   0  0  2  0  0  0  0  0  0  0  0  0
    3.5466   -2.2688   -0.6786 C   0  0  0  0  0  0  0  0  0  0  0  0
    1.7070   -0.2171   -1.3976 O   0  0  0  0  0  0  0  0  0  0  0  0
    0.9509   -1.9145    0.6937 S   0  0  0  0  0  0  0  0  0  0  0  0
   -0.3874   -0.6957    0.6694 C   0  0  0  0  0  0  0  0  0  0  0  0
   -1.6461   -1.2623    1.3216 C   0  0  0  0  0  0  0  0  0  0  0  0
   -2.7939   -0.2144    1.2593 N   0  0  2  0  0  0  0  0  0  0  0  0
   -3.1664    0.3051    2.6639 C   0  0  2  0  0  0  0  0  0  0  0  0
   -4.2748    1.3530    2.6130 C   0  0  0  0  0  0  0  0  0  0  0  0
   -1.9351    0.9608    3.3072 C   0  0  0  0  0  0  0  0  0  0  0  0
   -3.9079   -0.7429    0.3361 C   0  0  1  0  0  0  0  0  0  0  0  0
   -4.8303   -1.7174    1.0574 C   0  0  0  0  0  0  0  0  0  0  0  0
   -4.6436    0.3910   -0.3721 C   0  0  0  0  0  0  0  0  0  0  0  0
    4.6537    2.6515    2.3000 H   0  0  0  0  0  0  0  0  0  0  0  0
    3.0244    2.0655    2.7124 H   0  0  0  0  0  0  0  0  0  0  0  0
    4.4180    1.0292    2.9933 H   0  0  0  0  0  0  0  0  0  0  0  0
    4.8283    0.8951    0.5296 H   0  0  0  0  0  0  0  0  0  0  0  0
    3.4161    1.9436    0.2453 H   0  0  0  0  0  0  0  0  0  0  0  0
    4.4834   -2.0978   -1.2156 H   0  0  0  0  0  0  0  0  0  0  0  0
    3.7781   -2.7708    0.2650 H   0  0  0  0  0  0  0  0  0  0  0  0
    2.9303   -2.9410   -1.2825 H   0  0  0  0  0  0  0  0  0  0  0  0
   -0.0480    0.2051    1.1890 H   0  0  0  0  0  0  0  0  0  0  0  0
   -0.5967   -0.4260   -0.3707 H   0  0  0  0  0  0  0  0  0  0  0  0
   -1.4931   -1.5402    2.3692 H   0  0  0  0  0  0  0  0  0  0  0  0
   -1.9800   -2.1671    0.8012 H   0  0  0  0  0  0  0  0  0  0  0  0
   -2.4138    0.6048    0.7658 H   0  0  0  0  0  0  0  0  0  0  0  0
   -3.4847   -0.5612    3.2540 H   0  0  0  0  0  0  0  0  0  0  0  0
   -5.2445    0.9105    2.3779 H   0  0  0  0  0  0  0  0  0  0  0  0
   -4.0533    2.1426    1.8873 H   0  0  0  0  0  0  0  0  0  0  0  0
   -4.3979    1.8318    3.5916 H   0  0  0  0  0  0  0  0  0  0  0  0
   -1.1281    0.2478    3.4949 H   0  0  0  0  0  0  0  0  0  0  0  0
   -1.5392    1.7662    2.6786 H   0  0  0  0  0  0  0  0  0  0  0  0
   -2.1948    1.3942    4.2798 H   0  0  0  0  0  0  0  0  0  0  0  0
   -3.3853   -1.2853   -0.4623 H   0  0  0  0  0  0  0  0  0  0  0  0
   -5.4445   -1.2289    1.8180 H   0  0  0  0  0  0  0  0  0  0  0  0
   -5.5154   -2.1847    0.3414 H   0  0  0  0  0  0  0  0  0  0  0  0
   -4.2658   -2.5200    1.5426 H   0  0  0  0  0  0  0  0  0  0  0  0
   -5.3792    0.8910    0.2593 H   0  0  0  0  0  0  0  0  0  0  0  0
   -3.9468    1.1417   -0.7591 H   0  0  0  0  0  0  0  0  0  0  0  0
   -5.1983   -0.0102   -1.2284 H   0  0  0  0  0  0  0  0  0  0  0  0
  1  2  1  0
  2  3  1  0
  4  3  1  1
  4  5  1  0
  4  6  2  0
  4  7  1  0
  7  8  1  0
  8  9  1  0
  9 10  1  0
 10 11  1  0
 11 12  1  0
 11 13  1  0
 10 14  1  0
 14 15  1  0
 14 16  1  0
  1 17  1  0
  1 18  1  0
  1 19  1  0
  2 20  1  0
  2 21  1  0
  5 22  1  0
  5 23  1  0
  5 24  1  0
  8 25  1  0
  8 26  1  0
  9 27  1  0
  9 28  1  0
 10 29  1  6
 11 30  1  1
 12 31  1  0
 12 32  1  0
 12 33  1  0
 13 34  1  0
 13 35  1  0
 13 36  1  0
 14 37  1  6
 15 38  1  0
 15 39  1  0
 15 40  1  0
 16 41  1  0
 16 42  1  0
 16 43  1  0
M  CHG  1  10   1
M  END
$$$$
