VX
     RDKit          3D

 43 42  0  0  0  0  0  0  0  0999 V2000
    3.5618    2.1986    1.9065 C   0  0  0  0  0  0  0  0  0  0  0  0
    3.9841    1.0854    0.9686 C   0  0  0  0  0  0  0  0  0  0  0  0
    2.9780    0.0835    0.9788 O   0  0  0  0  0  0  0  0  0  0  0  0
    2.6981   -0.7455   -0.3791 P   0  0  2  0  0  0  0  0  0  0  0  0
    3.5458   -2.2786   -0.6907 C   0  0  0  0  0  0  0  0  0  0  0  0
    1.7123   -0.2127   -1.3842 O   0  0  0  0  0  0  0  0  0  0  0  0
    0.9614   -1.9250    0.6990 S   0  0  0  0  0  0  0  0  0  0  0  0
   -0.5244   -1.0199    0.1842 C   0  0  0  0  0  0  0  0  0  0  0  0
   -0.4847    0.4380    0.6631 C   0  0  0  0  0  0  0  0  0  0  0  0
   -1.5677    1.2885   -0.0363 N   0  0  2  0  0  0  0  0  0  0  0  0
   -1.1232    1.6854   -1.4582 C   0  0  1  0  0  0  0  0  0  0  0  0
   -2.3152    1.7214   -2.4113 C   0  0  0  0  0  0  0  0  0  0  0  0
   -0.2919    2.9558   -1.5093 C   0  0  0  0  0  0  0  0  0  0  0  0
   -2.1777    2.3101    0.9312 C   0  0  1  0  0  0  0  0  0  0  0  0
   -1.1674    3.2979    1.5097 C   0  0  0  0  0  0  0  0  0  0  0  0
   -3.3916    3.0095    0.3364 C   0  0  0  0  0  0  0  0  0  0  0  0
    2.6192    2.6440    1.5731 H   0  0  0  0  0  0  0  0  0  0  0  0
    3.3893    1.8098    2.9151 H   0  0  0  0  0  0  0  0  0  0  0  0
    4.3241    2.9813    1.9541 H   0  0  0  0  0  0  0  0  0  0  0  0
    4.9235    0.6378    1.3056 H   0  0  0  0  0  0  0  0  0  0  0  0
    4.1265    1.4824   -0.0424 H   0  0  0  0  0  0  0  0  0  0  0  0
    3.7709   -2.7972    0.2458 H   0  0  0  0  0  0  0  0  0  0  0  0
    2.9267   -2.9393   -1.3042 H   0  0  0  0  0  0  0  0  0  0  0  0
    4.4867   -2.1058   -1.2206 H   0  0  0  0  0  0  0  0  0  0  0  0
   -0.6061   -1.0973   -0.9020 H   0  0  0  0  0  0  0  0  0  0  0  0
   -1.4015   -1.5234    0.6070 H   0  0  0  0  0  0  0  0  0  0  0  0
    0.4673    0.9439    0.4885 H   0  0  0  0  0  0  0  0  0  0  0  0
   -0.6947    0.4577    1.7389 H   0  0  0  0  0  0  0  0  0  0  0  0
   -2.3423    0.6296   -0.1898 H   0  0  0  0  0  0  0  0  0  0  0  0
   -0.4903    0.8643   -1.8051 H   0  0  0  0  0  0  0  0  0  0  0  0
   -2.9458    2.6004   -2.2685 H   0  0  0  0  0  0  0  0  0  0  0  0
   -1.9610    1.7540   -3.4477 H   0  0  0  0  0  0  0  0  0  0  0  0
   -2.9365    0.8259   -2.3078 H   0  0  0  0  0  0  0  0  0  0  0  0
   -0.8975    3.8495   -1.3426 H   0  0  0  0  0  0  0  0  0  0  0  0
    0.5318    2.9356   -0.7881 H   0  0  0  0  0  0  0  0  0  0  0  0
    0.1559    3.0658   -2.5035 H   0  0  0  0  0  0  0  0  0  0  0  0
   -2.5490    1.6946    1.7610 H   0  0  0  0  0  0  0  0  0  0  0  0
   -1.5998    3.7852    2.3930 H   0  0  0  0  0  0  0  0  0  0  0  0
   -0.2420    2.8143    1.8334 H   0  0  0  0  0  0  0  0  0  0  0  0
   -0.9125    4.0996    0.8139 H   0  0  0  0  0  0  0  0  0  0  0  0
   -3.9425    3.5364    1.1244 H   0  0  0  0  0  0  0  0  0  0  0  0
   -4.0839    2.2950   -0.1205 H   0  0  0  0  0  0  0  0  0  0  0  0
   -3.1099    3.7605   -0.4058 H   0  0  0  0  0  0  0  0  0  0  0  0
  1  2  1  0
  2  3  1  0
  4  3  1  1
  4  5  1  0
  4  6  2  0
  4  7  1  0
  7  8  1  0
  8  9  1  0
  9 10  1  0
 10 11  1  0
 11 12  1  0
 11 13  1  0
 10 14  1  0
 14 15  1  0
 14 16  1  0
  1 17  1  0
  1 18  1  0
  1 19  1  0
  2 20  1  0
  2 21  1  0
  5 22  1  0
  5 23  1  0
  5 24  1  0
  8 25  1  0
  8 26  1  0
  9 27  1  0
  9 28  1  0
 10 29  1  6
 11 30  1  1
 12 31  1  0
 12 32  1  0
 12 33  1  0
 13 34  1  0
 13 35  1  0
 13 36  1  0
 14 37  1  1
 15 38  1  0
 15 39  1  0
 15 40  1  0
 16 41  1  0
 16 42  1  0
 16 43  1  0
M  CHG  1  10   1
M  END
$$$$
