VX
     RDKit          3D

 43 42  0  0  0  0  0  0  0  0999 V2000
    2.6003    1.6360    2.7157 C   0  0  0  0  0  0  0  0  0  0  0  0
    2.2926    1.2277    1.2904 C   0  0  0  0  0  0  0  0  0  0  0  0
    3.0118    0.0439    0.9899 O   0  0  0  0  0  0  0  0  0  0  0  0
    2.6768   -0.7225   -0.3882 P   0  0  2  0  0  0  0  0  0  0  0  0
    3.5482   -2.2548   -0.6607 C   0  0  0  0  0  0  0  0  0  0  0  0
    1.6974   -0.2200   -1.4162 O   0  0  0  0  0  0  0  0  0  0  0  0
    0.9401   -1.9019    0.6899 S   0  0  0  0  0  0  0  0  0  0  0  0
   -0.3304   -2.0438   -0.5968 C   0  0  0  0  0  0  0  0  0  0  0  0
   -1.1110   -0.7297   -0.7449 C   0  0  0  0  0  0  0  0  0  0  0  0
   -2.0046   -0.7644   -2.0110 N   0  0  2  0  0  0  0  0  0  0  0  0
   -1.1417   -0.3291   -3.2227 C   0  0  1  0  0  0  0  0  0  0  0  0
   -1.5563   -1.0690   -4.4914 C   0  0  0  0  0  0  0  0  0  0  0  0
   -1.0786    1.1853   -3.3854 C   0  0  0  0  0  0  0  0  0  0  0  0
   -3.3657   -0.0664   -1.7958 C   0  0  1  0  0  0  0  0  0  0  0  0
   -4.2355   -0.1268   -3.0515 C   0  0  0  0  0  0  0  0  0  0  0  0
   -4.1435   -0.7785   -0.6761 C   0  0  0  0  0  0  0  0  0  0  0  0
    2.3090    0.8446    3.4143 H   0  0  0  0  0  0  0  0  0  0  0  0
    3.6753    1.7971    2.8479 H   0  0  0  0  0  0  0  0  0  0  0  0
    2.0699    2.5544    2.9821 H   0  0  0  0  0  0  0  0  0  0  0  0
    1.2194    1.0479    1.1726 H   0  0  0  0  0  0  0  0  0  0  0  0
    2.5987    2.0171    0.5969 H   0  0  0  0  0  0  0  0  0  0  0  0
    2.9583   -2.9254   -1.2918 H   0  0  0  0  0  0  0  0  0  0  0  0
    4.5041   -2.0668   -1.1582 H   0  0  0  0  0  0  0  0  0  0  0  0
    3.7492   -2.7614    0.2876 H   0  0  0  0  0  0  0  0  0  0  0  0
    0.1544   -2.3439   -1.5301 H   0  0  0  0  0  0  0  0  0  0  0  0
   -1.0179   -2.8485   -0.3156 H   0  0  0  0  0  0  0  0  0  0  0  0
   -0.4810    0.1600   -0.8186 H   0  0  0  0  0  0  0  0  0  0  0  0
   -1.7442   -0.5927    0.1317 H   0  0  0  0  0  0  0  0  0  0  0  0
   -2.2389   -1.7525   -2.1713 H   0  0  0  0  0  0  0  0  0  0  0  0
   -0.1301   -0.6831   -3.0024 H   0  0  0  0  0  0  0  0  0  0  0  0
   -1.6833   -2.1405   -4.3055 H   0  0  0  0  0  0  0  0  0  0  0  0
   -0.7748   -0.9608   -5.2523 H   0  0  0  0  0  0  0  0  0  0  0  0
   -2.4743   -0.6842   -4.9371 H   0  0  0  0  0  0  0  0  0  0  0  0
   -0.7755    1.6812   -2.4585 H   0  0  0  0  0  0  0  0  0  0  0  0
   -2.0289    1.6190   -3.7034 H   0  0  0  0  0  0  0  0  0  0  0  0
   -0.3383    1.4464   -4.1499 H   0  0  0  0  0  0  0  0  0  0  0  0
   -3.1580    0.9713   -1.5144 H   0  0  0  0  0  0  0  0  0  0  0  0
   -5.2497    0.2296   -2.8358 H   0  0  0  0  0  0  0  0  0  0  0  0
   -4.3218   -1.1497   -3.4332 H   0  0  0  0  0  0  0  0  0  0  0  0
   -3.8631    0.5192   -3.8475 H   0  0  0  0  0  0  0  0  0  0  0  0
   -5.1792   -0.4218   -0.6356 H   0  0  0  0  0  0  0  0  0  0  0  0
   -4.1702   -1.8624   -0.8336 H   0  0  0  0  0  0  0  0  0  0  0  0
   -3.7277   -0.5846    0.3154 H   0  0  0  0  0  0  0  0  0  0  0  0
  1  2  1  0
  2  3  1  0
  4  3  1  1
  4  5  1  0
  4  6  2  0
  4  7  1  0
  7  8  1  0
  8  9  1  0
  9 10  1  0
 10 11  1  0
 11 12  1  0
 11 13  1  0
 10 14  1  0
 14 15  1  0
 14 16  1  0
  1 17  1  0
  1 18  1  0
  1 19  1  0
  2 20  1  0
  2 21  1  0
  5 22  1  0
  5 23  1  0
  5 24  1  0
  8 25  1  0
  8 26  1  0
  9 27  1  0
  9 28  1  0
 10 29  1  6
 11 30  1  6
 12 31  1  0
 12 32  1  0
 12 33  1  0
 13 34  1  0
 13 35  1  0
 13 36  1  0
 14 37  1  1
 15 38  1  0
 15 39  1  0
 15 40  1  0
 16 41  1  0
 16 42  1  0
 16 43  1  0
M  CHG  1  10   1
M  END
$$$$
