VX
     RDKit          3D

 43 42  0  0  0  0  0  0  0  0999 V2000
    5.2034    0.9389    1.4112 C   0  0  0  0  0  0  0  0  0  0  0  0
    3.7936    1.2436    0.9489 C   0  0  0  0  0  0  0  0  0  0  0  0
    2.9926    0.0684    0.9858 O   0  0  0  0  0  0  0  0  0  0  0  0
    2.6881   -0.7354   -0.3841 P   0  0  2  0  0  0  0  0  0  0  0  0
    3.5470   -2.2697   -0.6791 C   0  0  0  0  0  0  0  0  0  0  0  0
    1.7066   -0.2166   -1.3977 O   0  0  0  0  0  0  0  0  0  0  0  0
    0.9514   -1.9149    0.6939 S   0  0  0  0  0  0  0  0  0  0  0  0
   -0.3738   -0.6688    0.7429 C   0  0  0  0  0  0  0  0  0  0  0  0
   -1.7245   -1.3274    1.0296 C   0  0  0  0  0  0  0  0  0  0  0  0
   -2.8263   -0.2993    1.3382 N   0  0  1  0  0  0  0  0  0  0  0  0
   -3.2636    0.6400    0.1966 C   0  0  2  0  0  0  0  0  0  0  0  0
   -3.2090   -0.0147   -1.1832 C   0  0  0  0  0  0  0  0  0  0  0  0
   -2.4540    1.9362    0.2590 C   0  0  0  0  0  0  0  0  0  0  0  0
   -3.9875   -0.9565    2.1178 C   0  0  2  0  0  0  0  0  0  0  0  0
   -4.8930   -1.7737    1.2153 C   0  0  0  0  0  0  0  0  0  0  0  0
   -4.7509    0.1018    2.9141 C   0  0  0  0  0  0  0  0  0  0  0  0
    5.7265    0.3111    0.6780 H   0  0  0  0  0  0  0  0  0  0  0  0
    5.1871    0.3805    2.3544 H   0  0  0  0  0  0  0  0  0  0  0  0
    5.7783    1.8567    1.5336 H   0  0  0  0  0  0  0  0  0  0  0  0
    3.3363    1.9639    1.6317 H   0  0  0  0  0  0  0  0  0  0  0  0
    3.7988    1.6839   -0.0514 H   0  0  0  0  0  0  0  0  0  0  0  0
    3.8818   -2.7057    0.2647 H   0  0  0  0  0  0  0  0  0  0  0  0
    2.8953   -2.9967   -1.1725 H   0  0  0  0  0  0  0  0  0  0  0  0
    4.4089   -2.1042   -1.3236 H   0  0  0  0  0  0  0  0  0  0  0  0
   -0.3982   -0.1802   -0.2261 H   0  0  0  0  0  0  0  0  0  0  0  0
   -0.1260    0.0759    1.5006 H   0  0  0  0  0  0  0  0  0  0  0  0
   -1.6398   -1.9532    1.9254 H   0  0  0  0  0  0  0  0  0  0  0  0
   -2.0719   -1.9500    0.1990 H   0  0  0  0  0  0  0  0  0  0  0  0
   -2.3980    0.3121    2.0441 H   0  0  0  0  0  0  0  0  0  0  0  0
   -4.3021    0.9104    0.3953 H   0  0  0  0  0  0  0  0  0  0  0  0
   -2.1882   -0.2220   -1.5106 H   0  0  0  0  0  0  0  0  0  0  0  0
   -3.6527    0.6609   -1.9315 H   0  0  0  0  0  0  0  0  0  0  0  0
   -3.7752   -0.9520   -1.2208 H   0  0  0  0  0  0  0  0  0  0  0  0
   -2.8470    2.6618   -0.4580 H   0  0  0  0  0  0  0  0  0  0  0  0
   -1.3977    1.7834    0.0233 H   0  0  0  0  0  0  0  0  0  0  0  0
   -2.5196    2.3992    1.2545 H   0  0  0  0  0  0  0  0  0  0  0  0
   -3.5194   -1.6260    2.8453 H   0  0  0  0  0  0  0  0  0  0  0  0
   -5.6390   -2.3085    1.8139 H   0  0  0  0  0  0  0  0  0  0  0  0
   -5.4398   -1.1502    0.5012 H   0  0  0  0  0  0  0  0  0  0  0  0
   -4.3291   -2.5238    0.6570 H   0  0  0  0  0  0  0  0  0  0  0  0
   -4.0755    0.6635    3.5644 H   0  0  0  0  0  0  0  0  0  0  0  0
   -5.2801    0.8151    2.2786 H   0  0  0  0  0  0  0  0  0  0  0  0
   -5.4999   -0.3826    3.5525 H   0  0  0  0  0  0  0  0  0  0  0  0
  1  2  1  0
  2  3  1  0
  4  3  1  1
  4  5  1  0
  4  6  2  0
  4  7  1  0
  7  8  1  0
  8  9  1  0
  9 10  1  0
 10 11  1  0
 11 12  1  0
 11 13  1  0
 10 14  1  0
 14 15  1  0
 14 16  1  0
  1 17  1  0
  1 18  1  0
  1 19  1  0
  2 20  1  0
  2 21  1  0
  5 22  1  0
  5 23  1  0
  5 24  1  0
  8 25  1  0
  8 26  1  0
  9 27  1  0
  9 28  1  0
 10 29  1  6
 11 30  1  1
 12 31  1  0
 12 32  1  0
 12 33  1  0
 13 34  1  0
 13 35  1  0
 13 36  1  0
 14 37  1  6
 15 38  1  0
 15 39  1  0
 15 40  1  0
 16 41  1  0
 16 42  1  0
 16 43  1  0
M  CHG  1  10   1
M  END
$$$$
