VX
     RDKit          3D

 43 42  0  0  0  0  0  0  0  0999 V2000
    2.9480    2.4320    1.0641 C   0  0  0  0  0  0  0  0  0  0  0  0
    2.2165    1.1442    1.3818 C   0  0  0  0  0  0  0  0  0  0  0  0
    3.0149    0.0399    0.9905 O   0  0  0  0  0  0  0  0  0  0  0  0
    2.6740   -0.7196   -0.3895 P   0  0  2  0  0  0  0  0  0  0  0  0
    3.5483   -2.2523   -0.6579 C   0  0  0  0  0  0  0  0  0  0  0  0
    1.6970   -0.2213   -1.4182 O   0  0  0  0  0  0  0  0  0  0  0  0
    0.9373   -1.8991    0.6886 S   0  0  0  0  0  0  0  0  0  0  0  0
   -0.1914   -2.3805   -0.6508 C   0  0  0  0  0  0  0  0  0  0  0  0
   -1.0753   -1.2060   -1.0838 C   0  0  0  0  0  0  0  0  0  0  0  0
   -2.1377   -1.5927   -2.1345 N   0  0  1  0  0  0  0  0  0  0  0  0
   -1.5866   -2.0327   -3.5068 C   0  0  1  0  0  0  0  0  0  0  0  0
   -2.6848   -1.9470   -4.5694 C   0  0  0  0  0  0  0  0  0  0  0  0
   -0.4341   -1.1288   -3.9539 C   0  0  0  0  0  0  0  0  0  0  0  0
   -3.2594   -2.4389   -1.4933 C   0  0  1  0  0  0  0  0  0  0  0  0
   -4.6233   -1.8459   -1.8412 C   0  0  0  0  0  0  0  0  0  0  0  0
   -3.1621   -3.9260   -1.8169 C   0  0  0  0  0  0  0  0  0  0  0  0
    3.9205    2.4568    1.5668 H   0  0  0  0  0  0  0  0  0  0  0  0
    3.1434    2.5142   -0.0098 H   0  0  0  0  0  0  0  0  0  0  0  0
    2.3642    3.3002    1.3825 H   0  0  0  0  0  0  0  0  0  0  0  0
    1.2420    1.1168    0.8832 H   0  0  0  0  0  0  0  0  0  0  0  0
    2.0429    1.0677    2.4595 H   0  0  0  0  0  0  0  0  0  0  0  0
    3.7559   -2.7524    0.2923 H   0  0  0  0  0  0  0  0  0  0  0  0
    4.5003   -2.0641   -1.1621 H   0  0  0  0  0  0  0  0  0  0  0  0
    2.9567   -2.9280   -1.2818 H   0  0  0  0  0  0  0  0  0  0  0  0
    0.3940   -2.7774   -1.4845 H   0  0  0  0  0  0  0  0  0  0  0  0
   -0.8033   -3.1942   -0.2553 H   0  0  0  0  0  0  0  0  0  0  0  0
   -1.6333   -0.7967   -0.2323 H   0  0  0  0  0  0  0  0  0  0  0  0
   -0.5143   -0.3705   -1.5048 H   0  0  0  0  0  0  0  0  0  0  0  0
   -2.5739   -0.6818   -2.3337 H   0  0  0  0  0  0  0  0  0  0  0  0
   -1.2222   -3.0592   -3.4024 H   0  0  0  0  0  0  0  0  0  0  0  0
   -2.2735   -2.1478   -5.5653 H   0  0  0  0  0  0  0  0  0  0  0  0
   -3.1416   -0.9516   -4.5945 H   0  0  0  0  0  0  0  0  0  0  0  0
   -3.4747   -2.6834   -4.4159 H   0  0  0  0  0  0  0  0  0  0  0  0
    0.4596   -1.2864   -3.3465 H   0  0  0  0  0  0  0  0  0  0  0  0
   -0.1424   -1.3549   -4.9859 H   0  0  0  0  0  0  0  0  0  0  0  0
   -0.7096   -0.0696   -3.9101 H   0  0  0  0  0  0  0  0  0  0  0  0
   -3.1423   -2.3281   -0.4085 H   0  0  0  0  0  0  0  0  0  0  0  0
   -4.8640   -1.9288   -2.9028 H   0  0  0  0  0  0  0  0  0  0  0  0
   -5.4127   -2.3667   -1.2877 H   0  0  0  0  0  0  0  0  0  0  0  0
   -4.6732   -0.7875   -1.5633 H   0  0  0  0  0  0  0  0  0  0  0  0
   -2.1663   -4.3281   -1.6134 H   0  0  0  0  0  0  0  0  0  0  0  0
   -3.8696   -4.4863   -1.1949 H   0  0  0  0  0  0  0  0  0  0  0  0
   -3.4136   -4.1516   -2.8555 H   0  0  0  0  0  0  0  0  0  0  0  0
  1  2  1  0
  2  3  1  0
  4  3  1  1
  4  5  1  0
  4  6  2  0
  4  7  1  0
  7  8  1  0
  8  9  1  0
  9 10  1  0
 10 11  1  0
 11 12  1  0
 11 13  1  0
 10 14  1  0
 14 15  1  0
 14 16  1  0
  1 17  1  0
  1 18  1  0
  1 19  1  0
  2 20  1  0
  2 21  1  0
  5 22  1  0
  5 23  1  0
  5 24  1  0
  8 25  1  0
  8 26  1  0
  9 27  1  0
  9 28  1  0
 10 29  1  1
 11 30  1  6
 12 31  1  0
 12 32  1  0
 12 33  1  0
 13 34  1  0
 13 35  1  0
 13 36  1  0
 14 37  1  1
 15 38  1  0
 15 39  1  0
 15 40  1  0
 16 41  1  0
 16 42  1  0
 16 43  1  0
M  CHG  1  10   1
M  END
$$$$
