VX
     RDKit          3D

 43 42  0  0  0  0  0  0  0  0999 V2000
    4.1365    1.6752    2.3247 C   0  0  0  0  0  0  0  0  0  0  0  0
    3.8548    1.1993    0.9142 C   0  0  0  0  0  0  0  0  0  0  0  0
    2.9808    0.0816    0.9812 O   0  0  0  0  0  0  0  0  0  0  0  0
    2.6957   -0.7436   -0.3809 P   0  0  2  0  0  0  0  0  0  0  0  0
    3.5456   -2.2770   -0.6893 C   0  0  0  0  0  0  0  0  0  0  0  0
    1.7121   -0.2143   -1.3863 O   0  0  0  0  0  0  0  0  0  0  0  0
    0.9589   -1.9231    0.6972 S   0  0  0  0  0  0  0  0  0  0  0  0
   -0.5272   -0.9563    0.2891 C   0  0  0  0  0  0  0  0  0  0  0  0
   -0.4033    0.4883    0.7806 C   0  0  0  0  0  0  0  0  0  0  0  0
   -1.6834    1.3333    0.6901 N   0  0  1  0  0  0  0  0  0  0  0  0
   -2.3781    1.4682   -0.6721 C   0  0  2  0  0  0  0  0  0  0  0  0
   -3.3006    0.3095   -1.0208 C   0  0  0  0  0  0  0  0  0  0  0  0
   -1.3559    1.7485   -1.7742 C   0  0  0  0  0  0  0  0  0  0  0  0
   -2.5380    1.3056    1.9678 C   0  0  1  0  0  0  0  0  0  0  0  0
   -3.6723    2.3245    1.8991 C   0  0  0  0  0  0  0  0  0  0  0  0
   -3.0331   -0.0840    2.3430 C   0  0  0  0  0  0  0  0  0  0  0  0
    3.2051    1.9374    2.8382 H   0  0  0  0  0  0  0  0  0  0  0  0
    4.6108    0.8802    2.9103 H   0  0  0  0  0  0  0  0  0  0  0  0
    4.7944    2.5485    2.3177 H   0  0  0  0  0  0  0  0  0  0  0  0
    4.7894    0.9181    0.4206 H   0  0  0  0  0  0  0  0  0  0  0  0
    3.3724    1.9946    0.3375 H   0  0  0  0  0  0  0  0  0  0  0  0
    4.4793   -2.1107   -1.2331 H   0  0  0  0  0  0  0  0  0  0  0  0
    3.7823   -2.7835    0.2507 H   0  0  0  0  0  0  0  0  0  0  0  0
    2.9222   -2.9456   -1.2900 H   0  0  0  0  0  0  0  0  0  0  0  0
   -0.6455   -0.9972   -0.7953 H   0  0  0  0  0  0  0  0  0  0  0  0
   -1.3790   -1.4713    0.7345 H   0  0  0  0  0  0  0  0  0  0  0  0
    0.3503    1.0412    0.2122 H   0  0  0  0  0  0  0  0  0  0  0  0
   -0.0922    0.5245    1.8312 H   0  0  0  0  0  0  0  0  0  0  0  0
   -1.2758    2.2754    0.7725 H   0  0  0  0  0  0  0  0  0  0  0  0
   -2.9899    2.3742   -0.5944 H   0  0  0  0  0  0  0  0  0  0  0  0
   -3.7038    0.4424   -2.0316 H   0  0  0  0  0  0  0  0  0  0  0  0
   -2.8072   -0.6621   -1.0012 H   0  0  0  0  0  0  0  0  0  0  0  0
   -4.1648    0.2703   -0.3528 H   0  0  0  0  0  0  0  0  0  0  0  0
   -1.8690    2.0399   -2.6978 H   0  0  0  0  0  0  0  0  0  0  0  0
   -0.7452    0.8743   -2.0103 H   0  0  0  0  0  0  0  0  0  0  0  0
   -0.6891    2.5719   -1.4967 H   0  0  0  0  0  0  0  0  0  0  0  0
   -1.8574    1.6430    2.7604 H   0  0  0  0  0  0  0  0  0  0  0  0
   -3.3007    3.3143    1.6134 H   0  0  0  0  0  0  0  0  0  0  0  0
   -4.4537    2.0278    1.1935 H   0  0  0  0  0  0  0  0  0  0  0  0
   -4.1479    2.4251    2.8811 H   0  0  0  0  0  0  0  0  0  0  0  0
   -2.2023   -0.7289    2.6449 H   0  0  0  0  0  0  0  0  0  0  0  0
   -3.7046   -0.0268    3.2072 H   0  0  0  0  0  0  0  0  0  0  0  0
   -3.5809   -0.5783    1.5403 H   0  0  0  0  0  0  0  0  0  0  0  0
  1  2  1  0
  2  3  1  0
  4  3  1  1
  4  5  1  0
  4  6  2  0
  4  7  1  0
  7  8  1  0
  8  9  1  0
  9 10  1  0
 10 11  1  0
 11 12  1  0
 11 13  1  0
 10 14  1  0
 14 15  1  0
 14 16  1  0
  1 17  1  0
  1 18  1  0
  1 19  1  0
  2 20  1  0
  2 21  1  0
  5 22  1  0
  5 23  1  0
  5 24  1  0
  8 25  1  0
  8 26  1  0
  9 27  1  0
  9 28  1  0
 10 29  1  6
 11 30  1  1
 12 31  1  0
 12 32  1  0
 12 33  1  0
 13 34  1  0
 13 35  1  0
 13 36  1  0
 14 37  1  1
 15 38  1  0
 15 39  1  0
 15 40  1  0
 16 41  1  0
 16 42  1  0
 16 43  1  0
M  CHG  1  10   1
M  END
$$$$
