VX
     RDKit          3D

 43 42  0  0  0  0  0  0  0  0999 V2000
    4.0174    1.7571    2.3162 C   0  0  0  0  0  0  0  0  0  0  0  0
    3.8433    1.2012    0.9180 C   0  0  0  0  0  0  0  0  0  0  0  0
    2.9949    0.0647    0.9854 O   0  0  0  0  0  0  0  0  0  0  0  0
    2.6866   -0.7337   -0.3846 P   0  0  2  0  0  0  0  0  0  0  0  0
    3.5468   -2.2671   -0.6765 C   0  0  0  0  0  0  0  0  0  0  0  0
    1.7059   -0.2172   -1.3995 O   0  0  0  0  0  0  0  0  0  0  0  0
    0.9499   -1.9131    0.6935 S   0  0  0  0  0  0  0  0  0  0  0  0
   -0.2143   -0.5727    1.0813 C   0  0  0  0  0  0  0  0  0  0  0  0
   -1.6653   -1.0368    1.2385 C   0  0  0  0  0  0  0  0  0  0  0  0
   -2.4828   -1.1131   -0.0684 N   0  0  2  0  0  0  0  0  0  0  0  0
   -2.1513   -2.3932   -0.8685 C   0  0  2  0  0  0  0  0  0  0  0  0
   -1.2985   -2.1423   -2.1067 C   0  0  0  0  0  0  0  0  0  0  0  0
   -3.4419   -3.1451   -1.1959 C   0  0  0  0  0  0  0  0  0  0  0  0
   -2.6194    0.2119   -0.8519 C   0  0  2  0  0  0  0  0  0  0  0  0
   -2.8726    1.3865    0.1017 C   0  0  0  0  0  0  0  0  0  0  0  0
   -3.8073    0.1368   -1.8147 C   0  0  0  0  0  0  0  0  0  0  0  0
    4.4569    1.0039    2.9785 H   0  0  0  0  0  0  0  0  0  0  0  0
    3.0482    2.0319    2.7455 H   0  0  0  0  0  0  0  0  0  0  0  0
    4.6632    2.6396    2.3082 H   0  0  0  0  0  0  0  0  0  0  0  0
    4.8143    0.9136    0.5046 H   0  0  0  0  0  0  0  0  0  0  0  0
    3.3884    1.9550    0.2679 H   0  0  0  0  0  0  0  0  0  0  0  0
    2.9278   -2.9441   -1.2720 H   0  0  0  0  0  0  0  0  0  0  0  0
    4.4789   -2.0967   -1.2214 H   0  0  0  0  0  0  0  0  0  0  0  0
    3.7866   -2.7632    0.2683 H   0  0  0  0  0  0  0  0  0  0  0  0
    0.1220   -0.1426    2.0306 H   0  0  0  0  0  0  0  0  0  0  0  0
   -0.1248    0.2126    0.3277 H   0  0  0  0  0  0  0  0  0  0  0  0
   -1.7459   -2.0144    1.7291 H   0  0  0  0  0  0  0  0  0  0  0  0
   -2.2087   -0.3387    1.8842 H   0  0  0  0  0  0  0  0  0  0  0  0
   -3.4329   -1.2787    0.2875 H   0  0  0  0  0  0  0  0  0  0  0  0
   -1.5911   -3.0438   -0.1895 H   0  0  0  0  0  0  0  0  0  0  0  0
   -0.9139   -3.0948   -2.4890 H   0  0  0  0  0  0  0  0  0  0  0  0
   -1.8617   -1.6856   -2.9235 H   0  0  0  0  0  0  0  0  0  0  0  0
   -0.4372   -1.5065   -1.8962 H   0  0  0  0  0  0  0  0  0  0  0  0
   -4.0163   -3.3522   -0.2864 H   0  0  0  0  0  0  0  0  0  0  0  0
   -4.0874   -2.5982   -1.8861 H   0  0  0  0  0  0  0  0  0  0  0  0
   -3.2088   -4.1090   -1.6622 H   0  0  0  0  0  0  0  0  0  0  0  0
   -1.6848    0.3775   -1.3954 H   0  0  0  0  0  0  0  0  0  0  0  0
   -3.7367    1.1991    0.7486 H   0  0  0  0  0  0  0  0  0  0  0  0
   -2.0061    1.6011    0.7329 H   0  0  0  0  0  0  0  0  0  0  0  0
   -3.0737    2.3038   -0.4638 H   0  0  0  0  0  0  0  0  0  0  0  0
   -3.6457   -0.5712   -2.6282 H   0  0  0  0  0  0  0  0  0  0  0  0
   -3.9793    1.1098   -2.2893 H   0  0  0  0  0  0  0  0  0  0  0  0
   -4.7288   -0.1440   -1.2929 H   0  0  0  0  0  0  0  0  0  0  0  0
  1  2  1  0
  2  3  1  0
  4  3  1  1
  4  5  1  0
  4  6  2  0
  4  7  1  0
  7  8  1  0
  8  9  1  0
  9 10  1  0
 10 11  1  0
 11 12  1  0
 11 13  1  0
 10 14  1  0
 14 15  1  0
 14 16  1  0
  1 17  1  0
  1 18  1  0
  1 19  1  0
  2 20  1  0
  2 21  1  0
  5 22  1  0
  5 23  1  0
  5 24  1  0
  8 25  1  0
  8 26  1  0
  9 27  1  0
  9 28  1  0
 10 29  1  1
 11 30  1  1
 12 31  1  0
 12 32  1  0
 12 33  1  0
 13 34  1  0
 13 35  1  0
 13 36  1  0
 14 37  1  1
 15 38  1  0
 15 39  1  0
 15 40  1  0
 16 41  1  0
 16 42  1  0
 16 43  1  0
M  CHG  1  10   1
M  END
$$$$
