VX
     RDKit          3D

 43 42  0  0  0  0  0  0  0  0999 V2000
    3.7763    1.9939    2.1546 C   0  0  0  0  0  0  0  0  0  0  0  0
    3.9792    1.0903    0.9562 C   0  0  0  0  0  0  0  0  0  0  0  0
    2.9917    0.0693    0.9854 O   0  0  0  0  0  0  0  0  0  0  0  0
    2.6884   -0.7359   -0.3842 P   0  0  2  0  0  0  0  0  0  0  0  0
    3.5466   -2.2699   -0.6799 C   0  0  0  0  0  0  0  0  0  0  0  0
    1.7075   -0.2168   -1.3965 O   0  0  0  0  0  0  0  0  0  0  0  0
    0.9517   -1.9154    0.6939 S   0  0  0  0  0  0  0  0  0  0  0  0
   -0.3736   -0.6785    0.7206 C   0  0  0  0  0  0  0  0  0  0  0  0
   -1.6488   -1.2773    1.3157 C   0  0  0  0  0  0  0  0  0  0  0  0
   -2.7439   -0.2179    1.5146 N   0  0  2  0  0  0  0  0  0  0  0  0
   -3.7780   -0.5813    2.5988 C   0  0  2  0  0  0  0  0  0  0  0  0
   -3.2191   -0.1732    3.9629 C   0  0  0  0  0  0  0  0  0  0  0  0
   -4.1685   -2.0582    2.5816 C   0  0  0  0  0  0  0  0  0  0  0  0
   -3.3245    0.3361    0.2020 C   0  0  2  0  0  0  0  0  0  0  0  0
   -3.9063    1.7299    0.4438 C   0  0  0  0  0  0  0  0  0  0  0  0
   -4.3372   -0.6037   -0.4371 C   0  0  0  0  0  0  0  0  0  0  0  0
    3.8459    1.4216    3.0859 H   0  0  0  0  0  0  0  0  0  0  0  0
    4.5240    2.7915    2.1731 H   0  0  0  0  0  0  0  0  0  0  0  0
    2.7783    2.4439    2.1349 H   0  0  0  0  0  0  0  0  0  0  0  0
    3.8966    1.6706    0.0311 H   0  0  0  0  0  0  0  0  0  0  0  0
    4.9692    0.6265    0.9976 H   0  0  0  0  0  0  0  0  0  0  0  0
    2.9284   -2.9422   -1.2818 H   0  0  0  0  0  0  0  0  0  0  0  0
    3.7825   -2.7725    0.2622 H   0  0  0  0  0  0  0  0  0  0  0  0
    4.4801   -2.0969   -1.2218 H   0  0  0  0  0  0  0  0  0  0  0  0
   -0.0365    0.1806    1.3093 H   0  0  0  0  0  0  0  0  0  0  0  0
   -0.5385   -0.3452   -0.3059 H   0  0  0  0  0  0  0  0  0  0  0  0
   -1.4245   -1.6798    2.3084 H   0  0  0  0  0  0  0  0  0  0  0  0
   -2.0663   -2.0697    0.6876 H   0  0  0  0  0  0  0  0  0  0  0  0
   -2.2393    0.5862    1.9107 H   0  0  0  0  0  0  0  0  0  0  0  0
   -4.6677    0.0249    2.4084 H   0  0  0  0  0  0  0  0  0  0  0  0
   -2.3063   -0.7222    4.2143 H   0  0  0  0  0  0  0  0  0  0  0  0
   -3.9537   -0.3692    4.7515 H   0  0  0  0  0  0  0  0  0  0  0  0
   -2.9868    0.8971    3.9884 H   0  0  0  0  0  0  0  0  0  0  0  0
   -3.3519   -2.7096    2.9086 H   0  0  0  0  0  0  0  0  0  0  0  0
   -4.4935   -2.3941    1.5948 H   0  0  0  0  0  0  0  0  0  0  0  0
   -5.0027   -2.2278    3.2716 H   0  0  0  0  0  0  0  0  0  0  0  0
   -2.4794    0.4580   -0.4810 H   0  0  0  0  0  0  0  0  0  0  0  0
   -4.8080    1.7070    1.0619 H   0  0  0  0  0  0  0  0  0  0  0  0
   -4.1802    2.1933   -0.5101 H   0  0  0  0  0  0  0  0  0  0  0  0
   -3.1757    2.3845    0.9293 H   0  0  0  0  0  0  0  0  0  0  0  0
   -4.6444   -0.2140   -1.4147 H   0  0  0  0  0  0  0  0  0  0  0  0
   -3.9160   -1.5987   -0.6058 H   0  0  0  0  0  0  0  0  0  0  0  0
   -5.2463   -0.7032    0.1651 H   0  0  0  0  0  0  0  0  0  0  0  0
  1  2  1  0
  2  3  1  0
  4  3  1  1
  4  5  1  0
  4  6  2  0
  4  7  1  0
  7  8  1  0
  8  9  1  0
  9 10  1  0
 10 11  1  0
 11 12  1  0
 11 13  1  0
 10 14  1  0
 14 15  1  0
 14 16  1  0
  1 17  1  0
  1 18  1  0
  1 19  1  0
  2 20  1  0
  2 21  1  0
  5 22  1  0
  5 23  1  0
  5 24  1  0
  8 25  1  0
  8 26  1  0
  9 27  1  0
  9 28  1  0
 10 29  1  1
 11 30  1  6
 12 31  1  0
 12 32  1  0
 12 33  1  0
 13 34  1  0
 13 35  1  0
 13 36  1  0
 14 37  1  1
 15 38  1  0
 15 39  1  0
 15 40  1  0
 16 41  1  0
 16 42  1  0
 16 43  1  0
M  CHG  1  10   1
M  END
$$$$
