VX
     RDKit          3D

 43 42  0  0  0  0  0  0  0  0999 V2000
    3.2351    2.4163    1.3330 C   0  0  0  0  0  0  0  0  0  0  0  0
    3.9367    1.1268    0.9583 C   0  0  0  0  0  0  0  0  0  0  0  0
    2.9947    0.0640    0.9843 O   0  0  0  0  0  0  0  0  0  0  0  0
    2.6865   -0.7332   -0.3843 P   0  0  2  0  0  0  0  0  0  0  0  0
    3.5471   -2.2673   -0.6762 C   0  0  0  0  0  0  0  0  0  0  0  0
    1.7059   -0.2169   -1.3991 O   0  0  0  0  0  0  0  0  0  0  0  0
    0.9498   -1.9126    0.6938 S   0  0  0  0  0  0  0  0  0  0  0  0
   -0.3000   -2.0940   -0.6175 C   0  0  0  0  0  0  0  0  0  0  0  0
   -1.2067   -0.8570   -0.7519 C   0  0  0  0  0  0  0  0  0  0  0  0
   -1.7184   -0.3456    0.6127 N   0  0  1  0  0  0  0  0  0  0  0  0
   -1.6426    1.1926    0.7422 C   0  0  1  0  0  0  0  0  0  0  0  0
   -0.1937    1.6745    0.7465 C   0  0  0  0  0  0  0  0  0  0  0  0
   -2.4818    1.8911   -0.3237 C   0  0  0  0  0  0  0  0  0  0  0  0
   -3.0909   -0.9258    1.0285 C   0  0  2  0  0  0  0  0  0  0  0  0
   -3.4434   -0.5052    2.4582 C   0  0  0  0  0  0  0  0  0  0  0  0
   -3.0957   -2.4522    0.9603 C   0  0  0  0  0  0  0  0  0  0  0  0
    3.9426    3.2498    1.3637 H   0  0  0  0  0  0  0  0  0  0  0  0
    2.4480    2.6505    0.6086 H   0  0  0  0  0  0  0  0  0  0  0  0
    2.7519    2.3251    2.3118 H   0  0  0  0  0  0  0  0  0  0  0  0
    4.7239    0.8983    1.6834 H   0  0  0  0  0  0  0  0  0  0  0  0
    4.4002    1.2212   -0.0294 H   0  0  0  0  0  0  0  0  0  0  0  0
    3.7687   -2.7724    0.2682 H   0  0  0  0  0  0  0  0  0  0  0  0
    2.9359   -2.9365   -1.2886 H   0  0  0  0  0  0  0  0  0  0  0  0
    4.4899   -2.0937   -1.2015 H   0  0  0  0  0  0  0  0  0  0  0  0
    0.1997   -2.2930   -1.5711 H   0  0  0  0  0  0  0  0  0  0  0  0
   -0.8811   -2.9888   -0.3883 H   0  0  0  0  0  0  0  0  0  0  0  0
   -2.0810   -1.0618   -1.3792 H   0  0  0  0  0  0  0  0  0  0  0  0
   -0.6505   -0.0511   -1.2327 H   0  0  0  0  0  0  0  0  0  0  0  0
   -1.0343   -0.7051    1.2996 H   0  0  0  0  0  0  0  0  0  0  0  0
   -2.0372    1.4411    1.7298 H   0  0  0  0  0  0  0  0  0  0  0  0
    0.4066    1.1272    1.4795 H   0  0  0  0  0  0  0  0  0  0  0  0
   -0.1552    2.7343    1.0240 H   0  0  0  0  0  0  0  0  0  0  0  0
    0.2810    1.5905   -0.2333 H   0  0  0  0  0  0  0  0  0  0  0  0
   -2.1225    1.6877   -1.3369 H   0  0  0  0  0  0  0  0  0  0  0  0
   -3.5336    1.5969   -0.2689 H   0  0  0  0  0  0  0  0  0  0  0  0
   -2.4446    2.9767   -0.1785 H   0  0  0  0  0  0  0  0  0  0  0  0
   -3.8313   -0.5331    0.3242 H   0  0  0  0  0  0  0  0  0  0  0  0
   -4.3123   -1.0632    2.8255 H   0  0  0  0  0  0  0  0  0  0  0  0
   -3.7223    0.5510    2.5145 H   0  0  0  0  0  0  0  0  0  0  0  0
   -2.6128   -0.6875    3.1481 H   0  0  0  0  0  0  0  0  0  0  0  0
   -4.0332   -2.8533    1.3627 H   0  0  0  0  0  0  0  0  0  0  0  0
   -2.2757   -2.8856    1.5421 H   0  0  0  0  0  0  0  0  0  0  0  0
   -3.0360   -2.8090   -0.0715 H   0  0  0  0  0  0  0  0  0  0  0  0
  1  2  1  0
  2  3  1  0
  4  3  1  1
  4  5  1  0
  4  6  2  0
  4  7  1  0
  7  8  1  0
  8  9  1  0
  9 10  1  0
 10 11  1  0
 11 12  1  0
 11 13  1  0
 10 14  1  0
 14 15  1  0
 14 16  1  0
  1 17  1  0
  1 18  1  0
  1 19  1  0
  2 20  1  0
  2 21  1  0
  5 22  1  0
  5 23  1  0
  5 24  1  0
  8 25  1  0
  8 26  1  0
  9 27  1  0
  9 28  1  0
 10 29  1  6
 11 30  1  6
 12 31  1  0
 12 32  1  0
 12 33  1  0
 13 34  1  0
 13 35  1  0
 13 36  1  0
 14 37  1  1
 15 38  1  0
 15 39  1  0
 15 40  1  0
 16 41  1  0
 16 42  1  0
 16 43  1  0
M  CHG  1  10   1
M  END
$$$$
