VX
     RDKit          3D

 43 42  0  0  0  0  0  0  0  0999 V2000
    4.0551    1.7427    2.3060 C   0  0  0  0  0  0  0  0  0  0  0  0
    3.8112    1.2258    0.9033 C   0  0  0  0  0  0  0  0  0  0  0  0
    2.9937    0.0667    0.9858 O   0  0  0  0  0  0  0  0  0  0  0  0
    2.6867   -0.7343   -0.3852 P   0  0  2  0  0  0  0  0  0  0  0  0
    3.5462   -2.2677   -0.6781 C   0  0  0  0  0  0  0  0  0  0  0  0
    1.7076   -0.2181   -1.3976 O   0  0  0  0  0  0  0  0  0  0  0  0
    0.9499   -1.9138    0.6929 S   0  0  0  0  0  0  0  0  0  0  0  0
   -0.4428   -0.7478    0.5146 C   0  0  0  0  0  0  0  0  0  0  0  0
   -1.6645   -1.2145    1.3129 C   0  0  0  0  0  0  0  0  0  0  0  0
   -1.2935   -1.6210    2.7438 N   0  0  2  0  0  0  0  0  0  0  0  0
   -2.2072   -2.6812    3.3724 C   0  0  2  0  0  0  0  0  0  0  0  0
   -1.7473   -4.0645    2.9113 C   0  0  0  0  0  0  0  0  0  0  0  0
   -3.6835   -2.4534    3.0537 C   0  0  0  0  0  0  0  0  0  0  0  0
   -0.9022   -0.4437    3.6447 C   0  0  1  0  0  0  0  0  0  0  0  0
   -2.1127    0.2797    4.2178 C   0  0  0  0  0  0  0  0  0  0  0  0
    0.0530   -0.9249    4.7365 C   0  0  0  0  0  0  0  0  0  0  0  0
    4.5520    0.9804    2.9155 H   0  0  0  0  0  0  0  0  0  0  0  0
    3.1073    1.9784    2.8013 H   0  0  0  0  0  0  0  0  0  0  0  0
    4.6774    2.6414    2.2881 H   0  0  0  0  0  0  0  0  0  0  0  0
    3.2984    1.9865    0.3067 H   0  0  0  0  0  0  0  0  0  0  0  0
    4.7619    0.9762    0.4232 H   0  0  0  0  0  0  0  0  0  0  0  0
    4.4902   -2.0951   -1.2017 H   0  0  0  0  0  0  0  0  0  0  0  0
    2.9364   -2.9364   -1.2929 H   0  0  0  0  0  0  0  0  0  0  0  0
    3.7653   -2.7754    0.2657 H   0  0  0  0  0  0  0  0  0  0  0  0
   -0.7061   -0.6666   -0.5447 H   0  0  0  0  0  0  0  0  0  0  0  0
   -0.1144    0.2414    0.8463 H   0  0  0  0  0  0  0  0  0  0  0  0
   -2.0846   -2.0984    0.8219 H   0  0  0  0  0  0  0  0  0  0  0  0
   -2.4351   -0.4398    1.3673 H   0  0  0  0  0  0  0  0  0  0  0  0
   -0.3964   -2.1116    2.5910 H   0  0  0  0  0  0  0  0  0  0  0  0
   -2.0646   -2.6259    4.4555 H   0  0  0  0  0  0  0  0  0  0  0  0
   -2.3514   -4.8457    3.3852 H   0  0  0  0  0  0  0  0  0  0  0  0
   -0.7028   -4.2431    3.1888 H   0  0  0  0  0  0  0  0  0  0  0  0
   -1.8361   -4.1863    1.8270 H   0  0  0  0  0  0  0  0  0  0  0  0
   -4.0114   -1.4395    3.2938 H   0  0  0  0  0  0  0  0  0  0  0  0
   -4.2997   -3.1417    3.6431 H   0  0  0  0  0  0  0  0  0  0  0  0
   -3.9153   -2.6442    2.0011 H   0  0  0  0  0  0  0  0  0  0  0  0
   -0.3454    0.2559    3.0142 H   0  0  0  0  0  0  0  0  0  0  0  0
   -2.6702   -0.3440    4.9230 H   0  0  0  0  0  0  0  0  0  0  0  0
   -1.7903    1.1721    4.7662 H   0  0  0  0  0  0  0  0  0  0  0  0
   -2.7935    0.6142    3.4297 H   0  0  0  0  0  0  0  0  0  0  0  0
    0.4469   -0.0692    5.2959 H   0  0  0  0  0  0  0  0  0  0  0  0
   -0.4354   -1.5866    5.4577 H   0  0  0  0  0  0  0  0  0  0  0  0
    0.9077   -1.4589    4.3077 H   0  0  0  0  0  0  0  0  0  0  0  0
  1  2  1  0
  2  3  1  0
  4  3  1  1
  4  5  1  0
  4  6  2  0
  4  7  1  0
  7  8  1  0
  8  9  1  0
  9 10  1  0
 10 11  1  0
 11 12  1  0
 11 13  1  0
 10 14  1  0
 14 15  1  0
 14 16  1  0
  1 17  1  0
  1 18  1  0
  1 19  1  0
  2 20  1  0
  2 21  1  0
  5 22  1  0
  5 23  1  0
  5 24  1  0
  8 25  1  0
  8 26  1  0
  9 27  1  0
  9 28  1  0
 10 29  1  6
 11 30  1  1
 12 31  1  0
 12 32  1  0
 12 33  1  0
 13 34  1  0
 13 35  1  0
 13 36  1  0
 14 37  1  6
 15 38  1  0
 15 39  1  0
 15 40  1  0
 16 41  1  0
 16 42  1  0
 16 43  1  0
M  CHG  1  10   1
M  END
$$$$
