VX
     RDKit          3D

 43 42  0  0  0  0  0  0  0  0999 V2000
    3.2317    0.2674    3.3390 C   0  0  0  0  0  0  0  0  0  0  0  0
    3.5441   -0.5564    2.1070 C   0  0  0  0  0  0  0  0  0  0  0  0
    2.9748    0.0876    0.9781 O   0  0  0  0  0  0  0  0  0  0  0  0
    2.6995   -0.7472   -0.3786 P   0  0  2  0  0  0  0  0  0  0  0  0
    3.5458   -2.2815   -0.6939 C   0  0  0  0  0  0  0  0  0  0  0  0
    1.7142   -0.2123   -1.3808 O   0  0  0  0  0  0  0  0  0  0  0  0
    0.9628   -1.9266    0.6995 S   0  0  0  0  0  0  0  0  0  0  0  0
   -0.5218   -0.9728    0.2669 C   0  0  0  0  0  0  0  0  0  0  0  0
   -0.4359    0.4827    0.7469 C   0  0  0  0  0  0  0  0  0  0  0  0
   -1.7580    1.2289    0.4513 N   0  0  1  0  0  0  0  0  0  0  0  0
   -2.5713    1.5072    1.7352 C   0  0  2  0  0  0  0  0  0  0  0  0
   -2.9439    0.1813    2.4064 C   0  0  0  0  0  0  0  0  0  0  0  0
   -3.8581    2.2719    1.4206 C   0  0  0  0  0  0  0  0  0  0  0  0
   -1.5695    2.4442   -0.4786 C   0  0  1  0  0  0  0  0  0  0  0  0
   -0.7133    3.5287    0.1676 C   0  0  0  0  0  0  0  0  0  0  0  0
   -1.0289    1.9970   -1.8361 C   0  0  0  0  0  0  0  0  0  0  0  0
    2.1490    0.3607    3.4747 H   0  0  0  0  0  0  0  0  0  0  0  0
    3.6281    1.2829    3.2355 H   0  0  0  0  0  0  0  0  0  0  0  0
    3.6618   -0.1902    4.2343 H   0  0  0  0  0  0  0  0  0  0  0  0
    4.6268   -0.6261    1.9657 H   0  0  0  0  0  0  0  0  0  0  0  0
    3.1358   -1.5651    2.2182 H   0  0  0  0  0  0  0  0  0  0  0  0
    2.9549   -2.9084   -1.3681 H   0  0  0  0  0  0  0  0  0  0  0  0
    3.7131   -2.8452    0.2279 H   0  0  0  0  0  0  0  0  0  0  0  0
    4.5149   -2.0944   -1.1649 H   0  0  0  0  0  0  0  0  0  0  0  0
   -0.6576   -1.0085   -0.8188 H   0  0  0  0  0  0  0  0  0  0  0  0
   -1.3798   -1.4809    0.7160 H   0  0  0  0  0  0  0  0  0  0  0  0
    0.3741    1.0177    0.2522 H   0  0  0  0  0  0  0  0  0  0  0  0
   -0.2495    0.5515    1.8240 H   0  0  0  0  0  0  0  0  0  0  0  0
   -2.3450    0.5894   -0.1009 H   0  0  0  0  0  0  0  0  0  0  0  0
   -1.9319    2.0987    2.3994 H   0  0  0  0  0  0  0  0  0  0  0  0
   -3.5774    0.3595    3.2827 H   0  0  0  0  0  0  0  0  0  0  0  0
   -2.0651   -0.3618    2.7646 H   0  0  0  0  0  0  0  0  0  0  0  0
   -3.4972   -0.4712    1.7224 H   0  0  0  0  0  0  0  0  0  0  0  0
   -4.5004    2.3284    2.3067 H   0  0  0  0  0  0  0  0  0  0  0  0
   -3.6537    3.3056    1.1259 H   0  0  0  0  0  0  0  0  0  0  0  0
   -4.4307    1.7861    0.6231 H   0  0  0  0  0  0  0  0  0  0  0  0
   -2.5718    2.8380   -0.6696 H   0  0  0  0  0  0  0  0  0  0  0  0
   -0.6483    4.3984   -0.4958 H   0  0  0  0  0  0  0  0  0  0  0  0
   -1.1441    3.8755    1.1113 H   0  0  0  0  0  0  0  0  0  0  0  0
    0.3098    3.1956    0.3641 H   0  0  0  0  0  0  0  0  0  0  0  0
    0.0223    1.7042   -1.7926 H   0  0  0  0  0  0  0  0  0  0  0  0
   -1.6068    1.1579   -2.2373 H   0  0  0  0  0  0  0  0  0  0  0  0
   -1.0998    2.8204   -2.5557 H   0  0  0  0  0  0  0  0  0  0  0  0
  1  2  1  0
  2  3  1  0
  4  3  1  1
  4  5  1  0
  4  6  2  0
  4  7  1  0
  7  8  1  0
  8  9  1  0
  9 10  1  0
 10 11  1  0
 11 12  1  0
 11 13  1  0
 10 14  1  0
 14 15  1  0
 14 16  1  0
  1 17  1  0
  1 18  1  0
  1 19  1  0
  2 20  1  0
  2 21  1  0
  5 22  1  0
  5 23  1  0
  5 24  1  0
  8 25  1  0
  8 26  1  0
  9 27  1  0
  9 28  1  0
 10 29  1  1
 11 30  1  1
 12 31  1  0
 12 32  1  0
 12 33  1  0
 13 34  1  0
 13 35  1  0
 13 36  1  0
 14 37  1  6
 15 38  1  0
 15 39  1  0
 15 40  1  0
 16 41  1  0
 16 42  1  0
 16 43  1  0
M  CHG  1  10   1
M  END
$$$$
