VX
     RDKit          3D

 43 42  0  0  0  0  0  0  0  0999 V2000
    2.9937    1.8298    2.5490 C   0  0  0  0  0  0  0  0  0  0  0  0
    2.2681    1.1562    1.4018 C   0  0  0  0  0  0  0  0  0  0  0  0
    3.0223    0.0295    0.9912 O   0  0  0  0  0  0  0  0  0  0  0  0
    2.6692   -0.7137   -0.3909 P   0  0  2  0  0  0  0  0  0  0  0  0
    3.5493   -2.2468   -0.6503 C   0  0  0  0  0  0  0  0  0  0  0  0
    1.6934   -0.2223   -1.4252 O   0  0  0  0  0  0  0  0  0  0  0  0
    0.9324   -1.8932    0.6872 S   0  0  0  0  0  0  0  0  0  0  0  0
   -0.4718   -0.7449    0.8712 C   0  0  0  0  0  0  0  0  0  0  0  0
   -1.0697   -0.2528   -0.4561 C   0  0  0  0  0  0  0  0  0  0  0  0
   -1.3045   -1.3910   -1.4541 N   0  0  2  0  0  0  0  0  0  0  0  0
   -1.1122   -0.9098   -2.9057 C   0  0  1  0  0  0  0  0  0  0  0  0
   -0.7092   -2.0876   -3.7934 C   0  0  0  0  0  0  0  0  0  0  0  0
   -2.3450   -0.1776   -3.4279 C   0  0  0  0  0  0  0  0  0  0  0  0
   -2.5183   -2.3103   -1.2249 C   0  0  2  0  0  0  0  0  0  0  0  0
   -3.6883   -1.6134   -0.5416 C   0  0  0  0  0  0  0  0  0  0  0  0
   -2.0916   -3.5600   -0.4555 C   0  0  0  0  0  0  0  0  0  0  0  0
    3.9908    2.1607    2.2309 H   0  0  0  0  0  0  0  0  0  0  0  0
    2.4357    2.7027    2.9012 H   0  0  0  0  0  0  0  0  0  0  0  0
    3.1297    1.1334    3.3849 H   0  0  0  0  0  0  0  0  0  0  0  0
    1.2804    0.8228    1.7320 H   0  0  0  0  0  0  0  0  0  0  0  0
    2.1578    1.8573    0.5686 H   0  0  0  0  0  0  0  0  0  0  0  0
    4.4856   -2.0586   -1.1841 H   0  0  0  0  0  0  0  0  0  0  0  0
    2.9480   -2.9316   -1.2510 H   0  0  0  0  0  0  0  0  0  0  0  0
    3.7931   -2.7432    0.2956 H   0  0  0  0  0  0  0  0  0  0  0  0
   -1.2405   -1.2550    1.4562 H   0  0  0  0  0  0  0  0  0  0  0  0
   -0.1531    0.1137    1.4679 H   0  0  0  0  0  0  0  0  0  0  0  0
   -2.0117    0.2847   -0.3074 H   0  0  0  0  0  0  0  0  0  0  0  0
   -0.3869    0.4670   -0.9141 H   0  0  0  0  0  0  0  0  0  0  0  0
   -0.4757   -1.9860   -1.3026 H   0  0  0  0  0  0  0  0  0  0  0  0
   -0.2707   -0.2120   -2.8957 H   0  0  0  0  0  0  0  0  0  0  0  0
   -0.4621   -1.7318   -4.8019 H   0  0  0  0  0  0  0  0  0  0  0  0
    0.1782   -2.5937   -3.3955 H   0  0  0  0  0  0  0  0  0  0  0  0
   -1.5091   -2.8269   -3.8969 H   0  0  0  0  0  0  0  0  0  0  0  0
   -2.1307    0.2731   -4.4034 H   0  0  0  0  0  0  0  0  0  0  0  0
   -2.6645    0.6229   -2.7543 H   0  0  0  0  0  0  0  0  0  0  0  0
   -3.1896   -0.8577   -3.5671 H   0  0  0  0  0  0  0  0  0  0  0  0
   -2.8540   -2.6441   -2.2086 H   0  0  0  0  0  0  0  0  0  0  0  0
   -4.0154   -0.7340   -1.1031 H   0  0  0  0  0  0  0  0  0  0  0  0
   -3.4489   -1.2986    0.4812 H   0  0  0  0  0  0  0  0  0  0  0  0
   -4.5459   -2.2933   -0.4756 H   0  0  0  0  0  0  0  0  0  0  0  0
   -1.8322   -3.3339    0.5819 H   0  0  0  0  0  0  0  0  0  0  0  0
   -2.9175   -4.2830   -0.4281 H   0  0  0  0  0  0  0  0  0  0  0  0
   -1.2367   -4.0507   -0.9355 H   0  0  0  0  0  0  0  0  0  0  0  0
  1  2  1  0
  2  3  1  0
  4  3  1  1
  4  5  1  0
  4  6  2  0
  4  7  1  0
  7  8  1  0
  8  9  1  0
  9 10  1  0
 10 11  1  0
 11 12  1  0
 11 13  1  0
 10 14  1  0
 14 15  1  0
 14 16  1  0
  1 17  1  0
  1 18  1  0
  1 19  1  0
  2 20  1  0
  2 21  1  0
  5 22  1  0
  5 23  1  0
  5 24  1  0
  8 25  1  0
  8 26  1  0
  9 27  1  0
  9 28  1  0
 10 29  1  1
 11 30  1  6
 12 31  1  0
 12 32  1  0
 12 33  1  0
 13 34  1  0
 13 35  1  0
 13 36  1  0
 14 37  1  1
 15 38  1  0
 15 39  1  0
 15 40  1  0
 16 41  1  0
 16 42  1  0
 16 43  1  0
M  CHG  1  10   1
M  END
$$$$
