VX
     RDKit          3D

 43 42  0  0  0  0  0  0  0  0999 V2000
    3.3381    0.3303    3.3202 C   0  0  0  0  0  0  0  0  0  0  0  0
    3.5363   -0.5605    2.1104 C   0  0  0  0  0  0  0  0  0  0  0  0
    2.9760    0.0863    0.9787 O   0  0  0  0  0  0  0  0  0  0  0  0
    2.6984   -0.7460   -0.3791 P   0  0  2  0  0  0  0  0  0  0  0  0
    3.5461   -2.2811   -0.6929 C   0  0  0  0  0  0  0  0  0  0  0  0
    1.7137   -0.2126   -1.3818 O   0  0  0  0  0  0  0  0  0  0  0  0
    0.9616   -1.9254    0.6989 S   0  0  0  0  0  0  0  0  0  0  0  0
   -0.5397   -0.9844    0.2821 C   0  0  0  0  0  0  0  0  0  0  0  0
   -0.4370    0.4849    0.7054 C   0  0  0  0  0  0  0  0  0  0  0  0
   -1.7517    1.2707    0.5183 N   0  0  2  0  0  0  0  0  0  0  0  0
   -2.8006    0.8408    1.5664 C   0  0  1  0  0  0  0  0  0  0  0  0
   -3.3693    2.0717    2.2694 C   0  0  0  0  0  0  0  0  0  0  0  0
   -3.8863   -0.0728    1.0073 C   0  0  0  0  0  0  0  0  0  0  0  0
   -2.2159    1.4511   -0.9432 C   0  0  1  0  0  0  0  0  0  0  0  0
   -3.2370    2.5883   -1.0323 C   0  0  0  0  0  0  0  0  0  0  0  0
   -1.0407    1.8144   -1.8548 C   0  0  0  0  0  0  0  0  0  0  0  0
    3.8151    1.3037    3.1638 H   0  0  0  0  0  0  0  0  0  0  0  0
    3.7622   -0.1309    4.2167 H   0  0  0  0  0  0  0  0  0  0  0  0
    2.2727    0.5215    3.4889 H   0  0  0  0  0  0  0  0  0  0  0  0
    4.6049   -0.7217    1.9372 H   0  0  0  0  0  0  0  0  0  0  0  0
    3.0518   -1.5278    2.2728 H   0  0  0  0  0  0  0  0  0  0  0  0
    4.5163   -2.0948   -1.1620 H   0  0  0  0  0  0  0  0  0  0  0  0
    2.9546   -2.9072   -1.3684 H   0  0  0  0  0  0  0  0  0  0  0  0
    3.7110   -2.8430    0.2298 H   0  0  0  0  0  0  0  0  0  0  0  0
   -1.3606   -1.4823    0.8020 H   0  0  0  0  0  0  0  0  0  0  0  0
   -0.7228   -1.0772   -0.7922 H   0  0  0  0  0  0  0  0  0  0  0  0
    0.3344    1.0379    0.1658 H   0  0  0  0  0  0  0  0  0  0  0  0
   -0.1857    0.5738    1.7696 H   0  0  0  0  0  0  0  0  0  0  0  0
   -1.4688    2.2208    0.7960 H   0  0  0  0  0  0  0  0  0  0  0  0
   -2.2527    0.2755    2.3302 H   0  0  0  0  0  0  0  0  0  0  0  0
   -2.5674    2.6973    2.6776 H   0  0  0  0  0  0  0  0  0  0  0  0
   -4.0053    1.7654    3.1069 H   0  0  0  0  0  0  0  0  0  0  0  0
   -3.9792    2.6926    1.6101 H   0  0  0  0  0  0  0  0  0  0  0  0
   -4.4800   -0.4866    1.8307 H   0  0  0  0  0  0  0  0  0  0  0  0
   -4.5864    0.4491    0.3513 H   0  0  0  0  0  0  0  0  0  0  0  0
   -3.4714   -0.9190    0.4535 H   0  0  0  0  0  0  0  0  0  0  0  0
   -2.6523    0.5033   -1.2710 H   0  0  0  0  0  0  0  0  0  0  0  0
   -3.4777    2.8098   -2.0780 H   0  0  0  0  0  0  0  0  0  0  0  0
   -2.8503    3.5073   -0.5788 H   0  0  0  0  0  0  0  0  0  0  0  0
   -4.1837    2.3412   -0.5513 H   0  0  0  0  0  0  0  0  0  0  0  0
   -0.3552    0.9751   -1.9846 H   0  0  0  0  0  0  0  0  0  0  0  0
   -0.4788    2.6725   -1.4694 H   0  0  0  0  0  0  0  0  0  0  0  0
   -1.3956    2.0741   -2.8583 H   0  0  0  0  0  0  0  0  0  0  0  0
  1  2  1  0
  2  3  1  0
  4  3  1  1
  4  5  1  0
  4  6  2  0
  4  7  1  0
  7  8  1  0
  8  9  1  0
  9 10  1  0
 10 11  1  0
 11 12  1  0
 11 13  1  0
 10 14  1  0
 14 15  1  0
 14 16  1  0
  1 17  1  0
  1 18  1  0
  1 19  1  0
  2 20  1  0
  2 21  1  0
  5 22  1  0
  5 23  1  0
  5 24  1  0
  8 25  1  0
  8 26  1  0
  9 27  1  0
  9 28  1  0
 10 29  1  1
 11 30  1  6
 12 31  1  0
 12 32  1  0
 12 33  1  0
 13 34  1  0
 13 35  1  0
 13 36  1  0
 14 37  1  6
 15 38  1  0
 15 39  1  0
 15 40  1  0
 16 41  1  0
 16 42  1  0
 16 43  1  0
M  CHG  1  10   1
M  END
$$$$
