VX
     RDKit          3D

 43 42  0  0  0  0  0  0  0  0999 V2000
    3.7826    1.9583    2.1973 C   0  0  0  0  0  0  0  0  0  0  0  0
    3.9612    1.1058    0.9581 C   0  0  0  0  0  0  0  0  0  0  0  0
    2.9962    0.0635    0.9863 O   0  0  0  0  0  0  0  0  0  0  0  0
    2.6856   -0.7326   -0.3851 P   0  0  2  0  0  0  0  0  0  0  0  0
    3.5471   -2.2666   -0.6755 C   0  0  0  0  0  0  0  0  0  0  0  0
    1.7053   -0.2176   -1.4008 O   0  0  0  0  0  0  0  0  0  0  0  0
    0.9489   -1.9121    0.6930 S   0  0  0  0  0  0  0  0  0  0  0  0
   -0.2416   -0.5813    1.0193 C   0  0  0  0  0  0  0  0  0  0  0  0
   -1.6447   -1.0393    1.4306 C   0  0  0  0  0  0  0  0  0  0  0  0
   -2.5052   -1.7058    0.3345 N   0  0  1  0  0  0  0  0  0  0  0  0
   -2.7352   -0.7415   -0.8518 C   0  0  2  0  0  0  0  0  0  0  0  0
   -4.2200   -0.6871   -1.2106 C   0  0  0  0  0  0  0  0  0  0  0  0
   -1.8501   -1.0334   -2.0571 C   0  0  0  0  0  0  0  0  0  0  0  0
   -2.1899   -3.1853    0.0201 C   0  0  1  0  0  0  0  0  0  0  0  0
   -2.0201   -3.9928    1.3150 C   0  0  0  0  0  0  0  0  0  0  0  0
   -3.3466   -3.8244   -0.7570 C   0  0  0  0  0  0  0  0  0  0  0  0
    2.7646    2.3571    2.2463 H   0  0  0  0  0  0  0  0  0  0  0  0
    3.9307    1.3602    3.1026 H   0  0  0  0  0  0  0  0  0  0  0  0
    4.4885    2.7921    2.2049 H   0  0  0  0  0  0  0  0  0  0  0  0
    3.8306    1.7172    0.0595 H   0  0  0  0  0  0  0  0  0  0  0  0
    4.9626    0.6644    0.9459 H   0  0  0  0  0  0  0  0  0  0  0  0
    4.4930   -2.0918   -1.1947 H   0  0  0  0  0  0  0  0  0  0  0  0
    2.9431   -2.9344   -1.2967 H   0  0  0  0  0  0  0  0  0  0  0  0
    3.7607   -2.7815    0.2672 H   0  0  0  0  0  0  0  0  0  0  0  0
    0.1780    0.0236    1.8328 H   0  0  0  0  0  0  0  0  0  0  0  0
   -0.2901    0.0735    0.1458 H   0  0  0  0  0  0  0  0  0  0  0  0
   -1.6279   -1.6960    2.3049 H   0  0  0  0  0  0  0  0  0  0  0  0
   -2.2216   -0.1574    1.7373 H   0  0  0  0  0  0  0  0  0  0  0  0
   -3.4212   -1.7654    0.7978 H   0  0  0  0  0  0  0  0  0  0  0  0
   -2.4823    0.2583   -0.4776 H   0  0  0  0  0  0  0  0  0  0  0  0
   -4.8346   -0.5049   -0.3232 H   0  0  0  0  0  0  0  0  0  0  0  0
   -4.4054    0.1361   -1.9085 H   0  0  0  0  0  0  0  0  0  0  0  0
   -4.5766   -1.6003   -1.6910 H   0  0  0  0  0  0  0  0  0  0  0  0
   -1.9219   -0.2078   -2.7734 H   0  0  0  0  0  0  0  0  0  0  0  0
   -0.7976   -1.1309   -1.7847 H   0  0  0  0  0  0  0  0  0  0  0  0
   -2.1458   -1.9364   -2.5940 H   0  0  0  0  0  0  0  0  0  0  0  0
   -1.2764   -3.2189   -0.5774 H   0  0  0  0  0  0  0  0  0  0  0  0
   -1.9348   -5.0639    1.0947 H   0  0  0  0  0  0  0  0  0  0  0  0
   -2.8768   -3.8591    1.9848 H   0  0  0  0  0  0  0  0  0  0  0  0
   -1.1117   -3.7256    1.8618 H   0  0  0  0  0  0  0  0  0  0  0  0
   -4.3091   -3.6562   -0.2616 H   0  0  0  0  0  0  0  0  0  0  0  0
   -3.2025   -4.9089   -0.8378 H   0  0  0  0  0  0  0  0  0  0  0  0
   -3.4145   -3.4554   -1.7822 H   0  0  0  0  0  0  0  0  0  0  0  0
  1  2  1  0
  2  3  1  0
  4  3  1  1
  4  5  1  0
  4  6  2  0
  4  7  1  0
  7  8  1  0
  8  9  1  0
  9 10  1  0
 10 11  1  0
 11 12  1  0
 11 13  1  0
 10 14  1  0
 14 15  1  0
 14 16  1  0
  1 17  1  0
  1 18  1  0
  1 19  1  0
  2 20  1  0
  2 21  1  0
  5 22  1  0
  5 23  1  0
  5 24  1  0
  8 25  1  0
  8 26  1  0
  9 27  1  0
  9 28  1  0
 10 29  1  6
 11 30  1  1
 12 31  1  0
 12 32  1  0
 12 33  1  0
 13 34  1  0
 13 35  1  0
 13 36  1  0
 14 37  1  6
 15 38  1  0
 15 39  1  0
 15 40  1  0
 16 41  1  0
 16 42  1  0
 16 43  1  0
M  CHG  1  10   1
M  END
$$$$
