VX
     RDKit          3D

 43 42  0  0  0  0  0  0  0  0999 V2000
    3.9738    1.7957    2.3028 C   0  0  0  0  0  0  0  0  0  0  0  0
    3.8430    1.2034    0.9141 C   0  0  0  0  0  0  0  0  0  0  0  0
    2.9923    0.0684    0.9854 O   0  0  0  0  0  0  0  0  0  0  0  0
    2.6881   -0.7356   -0.3843 P   0  0  2  0  0  0  0  0  0  0  0  0
    3.5465   -2.2691   -0.6792 C   0  0  0  0  0  0  0  0  0  0  0  0
    1.7073   -0.2170   -1.3970 O   0  0  0  0  0  0  0  0  0  0  0  0
    0.9514   -1.9151    0.6938 S   0  0  0  0  0  0  0  0  0  0  0  0
   -0.3611   -0.6644    0.7414 C   0  0  0  0  0  0  0  0  0  0  0  0
   -1.6328   -1.2435    1.3583 C   0  0  0  0  0  0  0  0  0  0  0  0
   -2.7163   -0.1733    1.5576 N   0  0  1  0  0  0  0  0  0  0  0  0
   -3.3996    0.3857    0.2887 C   0  0  2  0  0  0  0  0  0  0  0  0
   -3.4697   -0.6143   -0.8605 C   0  0  0  0  0  0  0  0  0  0  0  0
   -2.7169    1.6901   -0.1211 C   0  0  0  0  0  0  0  0  0  0  0  0
   -3.7419   -0.5132    2.6584 C   0  0  2  0  0  0  0  0  0  0  0  0
   -3.0728   -0.4817    4.0338 C   0  0  0  0  0  0  0  0  0  0  0  0
   -4.4448   -1.8382    2.3904 C   0  0  0  0  0  0  0  0  0  0  0  0
    4.4019    1.0631    2.9959 H   0  0  0  0  0  0  0  0  0  0  0  0
    2.9911    2.0720    2.6991 H   0  0  0  0  0  0  0  0  0  0  0  0
    4.6119    2.6837    2.2903 H   0  0  0  0  0  0  0  0  0  0  0  0
    4.8261    0.9050    0.5375 H   0  0  0  0  0  0  0  0  0  0  0  0
    3.4084    1.9406    0.2316 H   0  0  0  0  0  0  0  0  0  0  0  0
    2.9314   -2.9371   -1.2903 H   0  0  0  0  0  0  0  0  0  0  0  0
    4.4868   -2.0977   -1.2093 H   0  0  0  0  0  0  0  0  0  0  0  0
    3.7707   -2.7763    0.2635 H   0  0  0  0  0  0  0  0  0  0  0  0
   -0.5377   -0.3333   -0.2831 H   0  0  0  0  0  0  0  0  0  0  0  0
   -0.0039    0.1918    1.3226 H   0  0  0  0  0  0  0  0  0  0  0  0
   -2.0605   -2.0555    0.7624 H   0  0  0  0  0  0  0  0  0  0  0  0
   -1.3961   -1.6400    2.3494 H   0  0  0  0  0  0  0  0  0  0  0  0
   -2.2148    0.6307    1.9579 H   0  0  0  0  0  0  0  0  0  0  0  0
   -4.4267    0.6402    0.5750 H   0  0  0  0  0  0  0  0  0  0  0  0
   -3.9340   -1.5559   -0.5557 H   0  0  0  0  0  0  0  0  0  0  0  0
   -2.4867   -0.8353   -1.2851 H   0  0  0  0  0  0  0  0  0  0  0  0
   -4.0787   -0.2034   -1.6741 H   0  0  0  0  0  0  0  0  0  0  0  0
   -3.2526    2.1519   -0.9581 H   0  0  0  0  0  0  0  0  0  0  0  0
   -1.6822    1.5407   -0.4381 H   0  0  0  0  0  0  0  0  0  0  0  0
   -2.7179    2.4095    0.7053 H   0  0  0  0  0  0  0  0  0  0  0  0
   -4.4768    0.3012    2.6458 H   0  0  0  0  0  0  0  0  0  0  0  0
   -2.4050   -1.3331    4.1967 H   0  0  0  0  0  0  0  0  0  0  0  0
   -2.4994    0.4402    4.1770 H   0  0  0  0  0  0  0  0  0  0  0  0
   -3.8348   -0.5199    4.8204 H   0  0  0  0  0  0  0  0  0  0  0  0
   -5.1827   -2.0377    3.1753 H   0  0  0  0  0  0  0  0  0  0  0  0
   -3.7477   -2.6823    2.3787 H   0  0  0  0  0  0  0  0  0  0  0  0
   -4.9848   -1.8211    1.4395 H   0  0  0  0  0  0  0  0  0  0  0  0
  1  2  1  0
  2  3  1  0
  4  3  1  1
  4  5  1  0
  4  6  2  0
  4  7  1  0
  7  8  1  0
  8  9  1  0
  9 10  1  0
 10 11  1  0
 11 12  1  0
 11 13  1  0
 10 14  1  0
 14 15  1  0
 14 16  1  0
  1 17  1  0
  1 18  1  0
  1 19  1  0
  2 20  1  0
  2 21  1  0
  5 22  1  0
  5 23  1  0
  5 24  1  0
  8 25  1  0
  8 26  1  0
  9 27  1  0
  9 28  1  0
 10 29  1  6
 11 30  1  1
 12 31  1  0
 12 32  1  0
 12 33  1  0
 13 34  1  0
 13 35  1  0
 13 36  1  0
 14 37  1  6
 15 38  1  0
 15 39  1  0
 15 40  1  0
 16 41  1  0
 16 42  1  0
 16 43  1  0
M  CHG  1  10   1
M  END
$$$$
