VX
     RDKit          3D

 43 42  0  0  0  0  0  0  0  0999 V2000
    3.7917    1.9382    2.2296 C   0  0  0  0  0  0  0  0  0  0  0  0
    3.9251    1.1401    0.9478 C   0  0  0  0  0  0  0  0  0  0  0  0
    2.9849    0.0764    0.9821 O   0  0  0  0  0  0  0  0  0  0  0  0
    2.6927   -0.7401   -0.3818 P   0  0  2  0  0  0  0  0  0  0  0  0
    3.5466   -2.2750   -0.6854 C   0  0  0  0  0  0  0  0  0  0  0  0
    1.7100   -0.2147   -1.3901 O   0  0  0  0  0  0  0  0  0  0  0  0
    0.9560   -1.9195    0.6963 S   0  0  0  0  0  0  0  0  0  0  0  0
   -0.2842   -0.6348    1.0117 C   0  0  0  0  0  0  0  0  0  0  0  0
   -1.0767   -0.2982   -0.2575 C   0  0  0  0  0  0  0  0  0  0  0  0
   -2.0505    0.8749   -0.0003 N   0  0  2  0  0  0  0  0  0  0  0  0
   -3.5195    0.5085   -0.2682 C   0  0  2  0  0  0  0  0  0  0  0  0
   -3.9788   -0.5624    0.7242 C   0  0  0  0  0  0  0  0  0  0  0  0
   -3.7505    0.0972   -1.7182 C   0  0  0  0  0  0  0  0  0  0  0  0
   -1.5605    2.1784   -0.6816 C   0  0  2  0  0  0  0  0  0  0  0  0
   -0.2337    2.6150   -0.0494 C   0  0  0  0  0  0  0  0  0  0  0  0
   -2.5780    3.3106   -0.5145 C   0  0  0  0  0  0  0  0  0  0  0  0
    2.7799    2.3423    2.3264 H   0  0  0  0  0  0  0  0  0  0  0  0
    4.5077    2.7650    2.2533 H   0  0  0  0  0  0  0  0  0  0  0  0
    3.9616    1.3002    3.1028 H   0  0  0  0  0  0  0  0  0  0  0  0
    4.9341    0.7279    0.8625 H   0  0  0  0  0  0  0  0  0  0  0  0
    3.7285    1.7834    0.0859 H   0  0  0  0  0  0  0  0  0  0  0  0
    2.9312   -2.9451   -1.2934 H   0  0  0  0  0  0  0  0  0  0  0  0
    3.7665   -2.7785    0.2620 H   0  0  0  0  0  0  0  0  0  0  0  0
    4.4886   -2.1054   -1.2145 H   0  0  0  0  0  0  0  0  0  0  0  0
   -0.9676   -1.0098    1.7822 H   0  0  0  0  0  0  0  0  0  0  0  0
    0.2194    0.2441    1.4218 H   0  0  0  0  0  0  0  0  0  0  0  0
   -1.6593   -1.1708   -0.5642 H   0  0  0  0  0  0  0  0  0  0  0  0
   -0.4577   -0.0174   -1.1111 H   0  0  0  0  0  0  0  0  0  0  0  0
   -2.0211    1.0829    1.0053 H   0  0  0  0  0  0  0  0  0  0  0  0
   -4.1066    1.4029   -0.0417 H   0  0  0  0  0  0  0  0  0  0  0  0
   -3.4854   -1.5257    0.5635 H   0  0  0  0  0  0  0  0  0  0  0  0
   -3.7914   -0.2467    1.7561 H   0  0  0  0  0  0  0  0  0  0  0  0
   -5.0570   -0.7305    0.6220 H   0  0  0  0  0  0  0  0  0  0  0  0
   -3.3173    0.8056   -2.4260 H   0  0  0  0  0  0  0  0  0  0  0  0
   -3.3402   -0.8936   -1.9326 H   0  0  0  0  0  0  0  0  0  0  0  0
   -4.8261    0.0471   -1.9240 H   0  0  0  0  0  0  0  0  0  0  0  0
   -1.4188    1.9507   -1.7465 H   0  0  0  0  0  0  0  0  0  0  0  0
   -0.3338    2.7495    1.0342 H   0  0  0  0  0  0  0  0  0  0  0  0
    0.1007    3.5657   -0.4769 H   0  0  0  0  0  0  0  0  0  0  0  0
    0.5672    1.8936   -0.2355 H   0  0  0  0  0  0  0  0  0  0  0  0
   -2.1534    4.2632   -0.8472 H   0  0  0  0  0  0  0  0  0  0  0  0
   -2.8866    3.4226    0.5296 H   0  0  0  0  0  0  0  0  0  0  0  0
   -3.4693    3.1435   -1.1292 H   0  0  0  0  0  0  0  0  0  0  0  0
  1  2  1  0
  2  3  1  0
  4  3  1  1
  4  5  1  0
  4  6  2  0
  4  7  1  0
  7  8  1  0
  8  9  1  0
  9 10  1  0
 10 11  1  0
 11 12  1  0
 11 13  1  0
 10 14  1  0
 14 15  1  0
 14 16  1  0
  1 17  1  0
  1 18  1  0
  1 19  1  0
  2 20  1  0
  2 21  1  0
  5 22  1  0
  5 23  1  0
  5 24  1  0
  8 25  1  0
  8 26  1  0
  9 27  1  0
  9 28  1  0
 10 29  1  1
 11 30  1  1
 12 31  1  0
 12 32  1  0
 12 33  1  0
 13 34  1  0
 13 35  1  0
 13 36  1  0
 14 37  1  1
 15 38  1  0
 15 39  1  0
 15 40  1  0
 16 41  1  0
 16 42  1  0
 16 43  1  0
M  CHG  1  10   1
M  END
$$$$
