VX
     RDKit          3D

 43 42  0  0  0  0  0  0  0  0999 V2000
    3.9849    1.7904    2.3046 C   0  0  0  0  0  0  0  0  0  0  0  0
    3.9066    1.1572    0.9301 C   0  0  0  0  0  0  0  0  0  0  0  0
    2.9811    0.0811    0.9811 O   0  0  0  0  0  0  0  0  0  0  0  0
    2.6955   -0.7434   -0.3810 P   0  0  2  0  0  0  0  0  0  0  0  0
    3.5455   -2.2766   -0.6889 C   0  0  0  0  0  0  0  0  0  0  0  0
    1.7121   -0.2145   -1.3864 O   0  0  0  0  0  0  0  0  0  0  0  0
    0.9587   -1.9228    0.6971 S   0  0  0  0  0  0  0  0  0  0  0  0
   -0.5378   -0.9514    0.3346 C   0  0  0  0  0  0  0  0  0  0  0  0
   -0.3980    0.4940    0.8178 C   0  0  0  0  0  0  0  0  0  0  0  0
   -1.6052    1.4076    0.5800 N   0  0  1  0  0  0  0  0  0  0  0  0
   -1.6690    2.1424   -0.7719 C   0  0  2  0  0  0  0  0  0  0  0  0
   -1.4604    1.2285   -1.9702 C   0  0  0  0  0  0  0  0  0  0  0  0
   -0.6609    3.2940   -0.7728 C   0  0  0  0  0  0  0  0  0  0  0  0
   -2.9723    1.0134    1.1490 C   0  0  1  0  0  0  0  0  0  0  0  0
   -3.7581    0.0692    0.2492 C   0  0  0  0  0  0  0  0  0  0  0  0
   -2.8403    0.4928    2.5782 C   0  0  0  0  0  0  0  0  0  0  0  0
    4.6928    2.6245    2.3113 H   0  0  0  0  0  0  0  0  0  0  0  0
    4.3017    1.0531    3.0500 H   0  0  0  0  0  0  0  0  0  0  0  0
    3.0015    2.1578    2.6171 H   0  0  0  0  0  0  0  0  0  0  0  0
    4.8913    0.7840    0.6342 H   0  0  0  0  0  0  0  0  0  0  0  0
    3.5678    1.8940    0.1951 H   0  0  0  0  0  0  0  0  0  0  0  0
    4.4738   -2.1091   -1.2413 H   0  0  0  0  0  0  0  0  0  0  0  0
    2.9183   -2.9472   -1.2830 H   0  0  0  0  0  0  0  0  0  0  0  0
    3.7908   -2.7806    0.2503 H   0  0  0  0  0  0  0  0  0  0  0  0
   -1.3532   -1.4605    0.8502 H   0  0  0  0  0  0  0  0  0  0  0  0
   -0.7264   -1.0159   -0.7374 H   0  0  0  0  0  0  0  0  0  0  0  0
   -0.2234    0.5136    1.9006 H   0  0  0  0  0  0  0  0  0  0  0  0
    0.4541    0.9993    0.3596 H   0  0  0  0  0  0  0  0  0  0  0  0
   -1.3678    2.1820    1.2143 H   0  0  0  0  0  0  0  0  0  0  0  0
   -2.6710    2.5838   -0.8282 H   0  0  0  0  0  0  0  0  0  0  0  0
   -2.1308    0.3663   -1.9622 H   0  0  0  0  0  0  0  0  0  0  0  0
   -0.4302    0.8709   -2.0351 H   0  0  0  0  0  0  0  0  0  0  0  0
   -1.6604    1.7807   -2.8960 H   0  0  0  0  0  0  0  0  0  0  0  0
   -0.7602    3.8827   -1.6911 H   0  0  0  0  0  0  0  0  0  0  0  0
    0.3732    2.9385   -0.7213 H   0  0  0  0  0  0  0  0  0  0  0  0
   -0.8329    3.9712    0.0710 H   0  0  0  0  0  0  0  0  0  0  0  0
   -3.5284    1.9584    1.2072 H   0  0  0  0  0  0  0  0  0  0  0  0
   -4.6990   -0.2166    0.7339 H   0  0  0  0  0  0  0  0  0  0  0  0
   -4.0306    0.5537   -0.6926 H   0  0  0  0  0  0  0  0  0  0  0  0
   -3.2237   -0.8517    0.0155 H   0  0  0  0  0  0  0  0  0  0  0  0
   -3.8311    0.3898    3.0350 H   0  0  0  0  0  0  0  0  0  0  0  0
   -2.2651    1.1867    3.2001 H   0  0  0  0  0  0  0  0  0  0  0  0
   -2.3614   -0.4886    2.6230 H   0  0  0  0  0  0  0  0  0  0  0  0
  1  2  1  0
  2  3  1  0
  4  3  1  1
  4  5  1  0
  4  6  2  0
  4  7  1  0
  7  8  1  0
  8  9  1  0
  9 10  1  0
 10 11  1  0
 11 12  1  0
 11 13  1  0
 10 14  1  0
 14 15  1  0
 14 16  1  0
  1 17  1  0
  1 18  1  0
  1 19  1  0
  2 20  1  0
  2 21  1  0
  5 22  1  0
  5 23  1  0
  5 24  1  0
  8 25  1  0
  8 26  1  0
  9 27  1  0
  9 28  1  0
 10 29  1  6
 11 30  1  6
 12 31  1  0
 12 32  1  0
 12 33  1  0
 13 34  1  0
 13 35  1  0
 13 36  1  0
 14 37  1  1
 15 38  1  0
 15 39  1  0
 15 40  1  0
 16 41  1  0
 16 42  1  0
 16 43  1  0
M  CHG  1  10   1
M  END
$$$$
