VX
     RDKit          3D

 43 42  0  0  0  0  0  0  0  0999 V2000
    4.0326    1.7509    2.3157 C   0  0  0  0  0  0  0  0  0  0  0  0
    3.8541    1.1945    0.9178 C   0  0  0  0  0  0  0  0  0  0  0  0
    2.9932    0.0673    0.9856 O   0  0  0  0  0  0  0  0  0  0  0  0
    2.6874   -0.7348   -0.3845 P   0  0  2  0  0  0  0  0  0  0  0  0
    3.5468   -2.2688   -0.6784 C   0  0  0  0  0  0  0  0  0  0  0  0
    1.7068   -0.2171   -1.3979 O   0  0  0  0  0  0  0  0  0  0  0  0
    0.9507   -1.9142    0.6936 S   0  0  0  0  0  0  0  0  0  0  0  0
   -0.3773   -0.6800    0.7083 C   0  0  0  0  0  0  0  0  0  0  0  0
   -1.6539   -1.2740    1.3061 C   0  0  0  0  0  0  0  0  0  0  0  0
   -2.8604   -0.3410    1.1204 N   0  0  1  0  0  0  0  0  0  0  0  0
   -4.2229   -1.0622    1.1472 C   0  0  2  0  0  0  0  0  0  0  0  0
   -4.2909   -2.1709    2.1961 C   0  0  0  0  0  0  0  0  0  0  0  0
   -4.5154   -1.6053   -0.2522 C   0  0  0  0  0  0  0  0  0  0  0  0
   -2.7794    0.9561    1.9396 C   0  0  1  0  0  0  0  0  0  0  0  0
   -3.6209    2.0428    1.2701 C   0  0  0  0  0  0  0  0  0  0  0  0
   -3.1602    0.7540    3.3994 C   0  0  0  0  0  0  0  0  0  0  0  0
    4.6929    2.6224    2.3076 H   0  0  0  0  0  0  0  0  0  0  0  0
    4.4569    0.9918    2.9812 H   0  0  0  0  0  0  0  0  0  0  0  0
    3.0666    2.0433    2.7396 H   0  0  0  0  0  0  0  0  0  0  0  0
    4.8227    0.8959    0.5071 H   0  0  0  0  0  0  0  0  0  0  0  0
    3.4088    1.9518    0.2654 H   0  0  0  0  0  0  0  0  0  0  0  0
    2.9295   -2.9424   -1.2799 H   0  0  0  0  0  0  0  0  0  0  0  0
    3.7803   -2.7687    0.2657 H   0  0  0  0  0  0  0  0  0  0  0  0
    4.4822   -2.0983   -1.2174 H   0  0  0  0  0  0  0  0  0  0  0  0
   -0.5599   -0.3510   -0.3193 H   0  0  0  0  0  0  0  0  0  0  0  0
   -0.0256    0.1790    1.2849 H   0  0  0  0  0  0  0  0  0  0  0  0
   -1.5534   -1.4778    2.3767 H   0  0  0  0  0  0  0  0  0  0  0  0
   -1.8995   -2.2024    0.7803 H   0  0  0  0  0  0  0  0  0  0  0  0
   -2.7708   -0.0170    0.1476 H   0  0  0  0  0  0  0  0  0  0  0  0
   -4.9799   -0.3080    1.3780 H   0  0  0  0  0  0  0  0  0  0  0  0
   -4.0048   -1.8224    3.1910 H   0  0  0  0  0  0  0  0  0  0  0  0
   -5.3171   -2.5493    2.2683 H   0  0  0  0  0  0  0  0  0  0  0  0
   -3.6570   -3.0257    1.9398 H   0  0  0  0  0  0  0  0  0  0  0  0
   -5.5037   -2.0769   -0.2800 H   0  0  0  0  0  0  0  0  0  0  0  0
   -3.7803   -2.3542   -0.5634 H   0  0  0  0  0  0  0  0  0  0  0  0
   -4.5143   -0.7994   -0.9941 H   0  0  0  0  0  0  0  0  0  0  0  0
   -1.7378    1.2853    1.8919 H   0  0  0  0  0  0  0  0  0  0  0  0
   -3.4521    3.0061    1.7639 H   0  0  0  0  0  0  0  0  0  0  0  0
   -4.6936    1.8352    1.3240 H   0  0  0  0  0  0  0  0  0  0  0  0
   -3.3480    2.1616    0.2163 H   0  0  0  0  0  0  0  0  0  0  0  0
   -2.5572   -0.0272    3.8713 H   0  0  0  0  0  0  0  0  0  0  0  0
   -4.2183    0.5018    3.5187 H   0  0  0  0  0  0  0  0  0  0  0  0
   -2.9874    1.6783    3.9623 H   0  0  0  0  0  0  0  0  0  0  0  0
  1  2  1  0
  2  3  1  0
  4  3  1  1
  4  5  1  0
  4  6  2  0
  4  7  1  0
  7  8  1  0
  8  9  1  0
  9 10  1  0
 10 11  1  0
 11 12  1  0
 11 13  1  0
 10 14  1  0
 14 15  1  0
 14 16  1  0
  1 17  1  0
  1 18  1  0
  1 19  1  0
  2 20  1  0
  2 21  1  0
  5 22  1  0
  5 23  1  0
  5 24  1  0
  8 25  1  0
  8 26  1  0
  9 27  1  0
  9 28  1  0
 10 29  1  1
 11 30  1  1
 12 31  1  0
 12 32  1  0
 12 33  1  0
 13 34  1  0
 13 35  1  0
 13 36  1  0
 14 37  1  1
 15 38  1  0
 15 39  1  0
 15 40  1  0
 16 41  1  0
 16 42  1  0
 16 43  1  0
M  CHG  1  10   1
M  END
$$$$
