VX
     RDKit          3D

 43 42  0  0  0  0  0  0  0  0999 V2000
    3.8303    1.8973    2.2554 C   0  0  0  0  0  0  0  0  0  0  0  0
    3.8871    1.1683    0.9288 C   0  0  0  0  0  0  0  0  0  0  0  0
    2.9921    0.0679    0.9844 O   0  0  0  0  0  0  0  0  0  0  0  0
    2.6877   -0.7352   -0.3845 P   0  0  2  0  0  0  0  0  0  0  0  0
    3.5462   -2.2686   -0.6791 C   0  0  0  0  0  0  0  0  0  0  0  0
    1.7083   -0.2175   -1.3960 O   0  0  0  0  0  0  0  0  0  0  0  0
    0.9510   -1.9146    0.6936 S   0  0  0  0  0  0  0  0  0  0  0  0
    0.0908   -0.6181    1.6425 C   0  0  0  0  0  0  0  0  0  0  0  0
   -1.4189   -0.8624    1.6280 C   0  0  0  0  0  0  0  0  0  0  0  0
   -1.9834   -0.8946    0.1973 N   0  0  1  0  0  0  0  0  0  0  0  0
   -3.0646   -1.9737    0.0420 C   0  0  2  0  0  0  0  0  0  0  0  0
   -3.1634   -2.4143   -1.4169 C   0  0  0  0  0  0  0  0  0  0  0  0
   -4.3978   -1.5169    0.6159 C   0  0  0  0  0  0  0  0  0  0  0  0
   -2.3060    0.4545   -0.4755 C   0  0  1  0  0  0  0  0  0  0  0  0
   -2.7342    1.5321    0.5121 C   0  0  0  0  0  0  0  0  0  0  0  0
   -1.1250    0.9102   -1.3239 C   0  0  0  0  0  0  0  0  0  0  0  0
    4.1104    1.2289    3.0759 H   0  0  0  0  0  0  0  0  0  0  0  0
    4.4994    2.7619    2.2571 H   0  0  0  0  0  0  0  0  0  0  0  0
    2.8130    2.2430    2.4589 H   0  0  0  0  0  0  0  0  0  0  0  0
    3.5964    1.8441    0.1176 H   0  0  0  0  0  0  0  0  0  0  0  0
    4.8989    0.8002    0.7440 H   0  0  0  0  0  0  0  0  0  0  0  0
    2.9177   -2.9554   -1.2526 H   0  0  0  0  0  0  0  0  0  0  0  0
    3.8147   -2.7480    0.2626 H   0  0  0  0  0  0  0  0  0  0  0  0
    4.4615   -2.0925   -1.2498 H   0  0  0  0  0  0  0  0  0  0  0  0
    0.3306    0.3657    1.2330 H   0  0  0  0  0  0  0  0  0  0  0  0
    0.4623   -0.6437    2.6717 H   0  0  0  0  0  0  0  0  0  0  0  0
   -1.6239   -1.8368    2.0883 H   0  0  0  0  0  0  0  0  0  0  0  0
   -1.9654   -0.1196    2.2141 H   0  0  0  0  0  0  0  0  0  0  0  0
   -1.1958   -1.2887   -0.3417 H   0  0  0  0  0  0  0  0  0  0  0  0
   -2.7132   -2.8419    0.6135 H   0  0  0  0  0  0  0  0  0  0  0  0
   -3.5508   -1.6292   -2.0719 H   0  0  0  0  0  0  0  0  0  0  0  0
   -3.8391   -3.2719   -1.5040 H   0  0  0  0  0  0  0  0  0  0  0  0
   -2.1884   -2.7260   -1.8006 H   0  0  0  0  0  0  0  0  0  0  0  0
   -4.8468   -0.7059    0.0368 H   0  0  0  0  0  0  0  0  0  0  0  0
   -4.2925   -1.1816    1.6501 H   0  0  0  0  0  0  0  0  0  0  0  0
   -5.1125   -2.3474    0.6146 H   0  0  0  0  0  0  0  0  0  0  0  0
   -3.1390    0.2765   -1.1602 H   0  0  0  0  0  0  0  0  0  0  0  0
   -1.9115    1.8413    1.1612 H   0  0  0  0  0  0  0  0  0  0  0  0
   -3.0663    2.4263   -0.0251 H   0  0  0  0  0  0  0  0  0  0  0  0
   -3.5691    1.2041    1.1397 H   0  0  0  0  0  0  0  0  0  0  0  0
   -0.2767    1.2102   -0.7129 H   0  0  0  0  0  0  0  0  0  0  0  0
   -0.8059    0.1195   -2.0092 H   0  0  0  0  0  0  0  0  0  0  0  0
   -1.4058    1.7755   -1.9300 H   0  0  0  0  0  0  0  0  0  0  0  0
  1  2  1  0
  2  3  1  0
  4  3  1  1
  4  5  1  0
  4  6  2  0
  4  7  1  0
  7  8  1  0
  8  9  1  0
  9 10  1  0
 10 11  1  0
 11 12  1  0
 11 13  1  0
 10 14  1  0
 14 15  1  0
 14 16  1  0
  1 17  1  0
  1 18  1  0
  1 19  1  0
  2 20  1  0
  2 21  1  0
  5 22  1  0
  5 23  1  0
  5 24  1  0
  8 25  1  0
  8 26  1  0
  9 27  1  0
  9 28  1  0
 10 29  1  1
 11 30  1  1
 12 31  1  0
 12 32  1  0
 12 33  1  0
 13 34  1  0
 13 35  1  0
 13 36  1  0
 14 37  1  6
 15 38  1  0
 15 39  1  0
 15 40  1  0
 16 41  1  0
 16 42  1  0
 16 43  1  0
M  CHG  1  10   1
M  END
$$$$
