VX
     RDKit          3D

 43 42  0  0  0  0  0  0  0  0999 V2000
    4.7275   -0.1001    2.6084 C   0  0  0  0  0  0  0  0  0  0  0  0
    3.3713   -0.6084    2.1651 C   0  0  0  0  0  0  0  0  0  0  0  0
    2.9877    0.0725    0.9825 O   0  0  0  0  0  0  0  0  0  0  0  0
    2.6910   -0.7378   -0.3821 P   0  0  2  0  0  0  0  0  0  0  0  0
    3.5473   -2.2733   -0.6824 C   0  0  0  0  0  0  0  0  0  0  0  0
    1.7082   -0.2148   -1.3931 O   0  0  0  0  0  0  0  0  0  0  0  0
    0.9542   -1.9172    0.6960 S   0  0  0  0  0  0  0  0  0  0  0  0
   -0.4634   -0.8321    0.3705 C   0  0  0  0  0  0  0  0  0  0  0  0
   -1.7424   -1.3845    1.0017 C   0  0  0  0  0  0  0  0  0  0  0  0
   -2.9472   -0.4941    0.6560 N   0  0  1  0  0  0  0  0  0  0  0  0
   -4.1020   -1.2005   -0.0780 C   0  0  1  0  0  0  0  0  0  0  0  0
   -3.7238   -1.3515   -1.5521 C   0  0  0  0  0  0  0  0  0  0  0  0
   -4.4786   -2.5491    0.5333 C   0  0  0  0  0  0  0  0  0  0  0  0
   -3.4161    0.4779    1.7512 C   0  0  2  0  0  0  0  0  0  0  0  0
   -2.2690    1.3904    2.1786 C   0  0  0  0  0  0  0  0  0  0  0  0
   -4.0465   -0.2296    2.9436 C   0  0  0  0  0  0  0  0  0  0  0  0
    4.7002    0.9826    2.7697 H   0  0  0  0  0  0  0  0  0  0  0  0
    5.0423   -0.5871    3.5356 H   0  0  0  0  0  0  0  0  0  0  0  0
    5.4818   -0.2881    1.8375 H   0  0  0  0  0  0  0  0  0  0  0  0
    3.4005   -1.6910    2.0124 H   0  0  0  0  0  0  0  0  0  0  0  0
    2.6212   -0.3980    2.9337 H   0  0  0  0  0  0  0  0  0  0  0  0
    2.9575   -2.9101   -1.3482 H   0  0  0  0  0  0  0  0  0  0  0  0
    4.5124   -2.0830   -1.1604 H   0  0  0  0  0  0  0  0  0  0  0  0
    3.7250   -2.8282    0.2423 H   0  0  0  0  0  0  0  0  0  0  0  0
   -0.5931   -0.7507   -0.7134 H   0  0  0  0  0  0  0  0  0  0  0  0
   -0.2261    0.1622    0.7561 H   0  0  0  0  0  0  0  0  0  0  0  0
   -1.9332   -2.3836    0.6050 H   0  0  0  0  0  0  0  0  0  0  0  0
   -1.6689   -1.4535    2.0902 H   0  0  0  0  0  0  0  0  0  0  0  0
   -2.5945    0.1557   -0.0602 H   0  0  0  0  0  0  0  0  0  0  0  0
   -4.9611   -0.5229   -0.0149 H   0  0  0  0  0  0  0  0  0  0  0  0
   -4.5481   -1.8039   -2.1138 H   0  0  0  0  0  0  0  0  0  0  0  0
   -3.5107   -0.3777   -2.0059 H   0  0  0  0  0  0  0  0  0  0  0  0
   -2.8415   -1.9868   -1.6824 H   0  0  0  0  0  0  0  0  0  0  0  0
   -3.7842   -3.3448    0.2445 H   0  0  0  0  0  0  0  0  0  0  0  0
   -5.4652   -2.8542    0.1659 H   0  0  0  0  0  0  0  0  0  0  0  0
   -4.5282   -2.5288    1.6228 H   0  0  0  0  0  0  0  0  0  0  0  0
   -4.1738    1.1106    1.2724 H   0  0  0  0  0  0  0  0  0  0  0  0
   -1.4886    0.8459    2.7190 H   0  0  0  0  0  0  0  0  0  0  0  0
   -2.6392    2.1748    2.8482 H   0  0  0  0  0  0  0  0  0  0  0  0
   -1.8160    1.8879    1.3148 H   0  0  0  0  0  0  0  0  0  0  0  0
   -4.2663    0.4910    3.7396 H   0  0  0  0  0  0  0  0  0  0  0  0
   -5.0018   -0.6871    2.6717 H   0  0  0  0  0  0  0  0  0  0  0  0
   -3.3980   -0.9994    3.3701 H   0  0  0  0  0  0  0  0  0  0  0  0
  1  2  1  0
  2  3  1  0
  4  3  1  1
  4  5  1  0
  4  6  2  0
  4  7  1  0
  7  8  1  0
  8  9  1  0
  9 10  1  0
 10 11  1  0
 11 12  1  0
 11 13  1  0
 10 14  1  0
 14 15  1  0
 14 16  1  0
  1 17  1  0
  1 18  1  0
  1 19  1  0
  2 20  1  0
  2 21  1  0
  5 22  1  0
  5 23  1  0
  5 24  1  0
  8 25  1  0
  8 26  1  0
  9 27  1  0
  9 28  1  0
 10 29  1  1
 11 30  1  1
 12 31  1  0
 12 32  1  0
 12 33  1  0
 13 34  1  0
 13 35  1  0
 13 36  1  0
 14 37  1  1
 15 38  1  0
 15 39  1  0
 15 40  1  0
 16 41  1  0
 16 42  1  0
 16 43  1  0
M  CHG  1  10   1
M  END
$$$$
