VX
     RDKit          3D

 43 42  0  0  0  0  0  0  0  0999 V2000
    4.0183    1.7622    2.3116 C   0  0  0  0  0  0  0  0  0  0  0  0
    3.8471    1.1997    0.9157 C   0  0  0  0  0  0  0  0  0  0  0  0
    2.9935    0.0671    0.9858 O   0  0  0  0  0  0  0  0  0  0  0  0
    2.6873   -0.7347   -0.3846 P   0  0  2  0  0  0  0  0  0  0  0  0
    3.5467   -2.2685   -0.6782 C   0  0  0  0  0  0  0  0  0  0  0  0
    1.7068   -0.2172   -1.3981 O   0  0  0  0  0  0  0  0  0  0  0  0
    0.9505   -1.9141    0.6935 S   0  0  0  0  0  0  0  0  0  0  0  0
   -0.3923   -0.6961    0.6666 C   0  0  0  0  0  0  0  0  0  0  0  0
   -1.6531   -1.2742    1.3058 C   0  0  0  0  0  0  0  0  0  0  0  0
   -2.7689   -0.2267    1.4324 N   0  0  1  0  0  0  0  0  0  0  0  0
   -3.4572    0.2336    0.1275 C   0  0  2  0  0  0  0  0  0  0  0  0
   -3.4854   -0.8347   -0.9598 C   0  0  0  0  0  0  0  0  0  0  0  0
   -2.8115    1.5318   -0.3545 C   0  0  0  0  0  0  0  0  0  0  0  0
   -3.7937   -0.5303    2.5443 C   0  0  2  0  0  0  0  0  0  0  0  0
   -3.1387   -0.3949    3.9193 C   0  0  0  0  0  0  0  0  0  0  0  0
   -4.4541   -1.8892    2.3526 C   0  0  0  0  0  0  0  0  0  0  0  0
    4.4496    1.0100    2.9803 H   0  0  0  0  0  0  0  0  0  0  0  0
    3.0490    2.0461    2.7346 H   0  0  0  0  0  0  0  0  0  0  0  0
    4.6698    2.6405    2.3015 H   0  0  0  0  0  0  0  0  0  0  0  0
    4.8185    0.9061    0.5077 H   0  0  0  0  0  0  0  0  0  0  0  0
    3.3979    1.9524    0.2604 H   0  0  0  0  0  0  0  0  0  0  0  0
    3.7766   -2.7707    0.2657 H   0  0  0  0  0  0  0  0  0  0  0  0
    2.9309   -2.9402   -1.2832 H   0  0  0  0  0  0  0  0  0  0  0  0
    4.4843   -2.0975   -1.2137 H   0  0  0  0  0  0  0  0  0  0  0  0
   -0.0615    0.1985    1.2035 H   0  0  0  0  0  0  0  0  0  0  0  0
   -0.5690   -0.4247   -0.3750 H   0  0  0  0  0  0  0  0  0  0  0  0
   -2.0516   -2.1321    0.7561 H   0  0  0  0  0  0  0  0  0  0  0  0
   -1.4150   -1.6047    2.3200 H   0  0  0  0  0  0  0  0  0  0  0  0
   -2.2946    0.6146    1.7864 H   0  0  0  0  0  0  0  0  0  0  0  0
   -4.4943    0.4721    0.3901 H   0  0  0  0  0  0  0  0  0  0  0  0
   -4.0980   -0.4916   -1.8016 H   0  0  0  0  0  0  0  0  0  0  0  0
   -2.4919   -1.0513   -1.3617 H   0  0  0  0  0  0  0  0  0  0  0  0
   -3.9256   -1.7697   -0.6036 H   0  0  0  0  0  0  0  0  0  0  0  0
   -1.7681    1.3972   -0.6488 H   0  0  0  0  0  0  0  0  0  0  0  0
   -2.8477    2.3005    0.4250 H   0  0  0  0  0  0  0  0  0  0  0  0
   -3.3500    1.9225   -1.2250 H   0  0  0  0  0  0  0  0  0  0  0  0
   -4.5525    0.2585    2.4769 H   0  0  0  0  0  0  0  0  0  0  0  0
   -2.4433   -1.2108    4.1362 H   0  0  0  0  0  0  0  0  0  0  0  0
   -2.5989    0.5533    4.0114 H   0  0  0  0  0  0  0  0  0  0  0  0
   -3.9060   -0.4139    4.7014 H   0  0  0  0  0  0  0  0  0  0  0  0
   -5.1953   -2.0620    3.1408 H   0  0  0  0  0  0  0  0  0  0  0  0
   -4.9831   -1.9471    1.3978 H   0  0  0  0  0  0  0  0  0  0  0  0
   -3.7326   -2.7105    2.3999 H   0  0  0  0  0  0  0  0  0  0  0  0
  1  2  1  0
  2  3  1  0
  4  3  1  1
  4  5  1  0
  4  6  2  0
  4  7  1  0
  7  8  1  0
  8  9  1  0
  9 10  1  0
 10 11  1  0
 11 12  1  0
 11 13  1  0
 10 14  1  0
 14 15  1  0
 14 16  1  0
  1 17  1  0
  1 18  1  0
  1 19  1  0
  2 20  1  0
  2 21  1  0
  5 22  1  0
  5 23  1  0
  5 24  1  0
  8 25  1  0
  8 26  1  0
  9 27  1  0
  9 28  1  0
 10 29  1  6
 11 30  1  1
 12 31  1  0
 12 32  1  0
 12 33  1  0
 13 34  1  0
 13 35  1  0
 13 36  1  0
 14 37  1  6
 15 38  1  0
 15 39  1  0
 15 40  1  0
 16 41  1  0
 16 42  1  0
 16 43  1  0
M  CHG  1  10   1
M  END
$$$$
