VX
     RDKit          3D

 43 42  0  0  0  0  0  0  0  0999 V2000
    3.8686    1.9022    2.2385 C   0  0  0  0  0  0  0  0  0  0  0  0
    3.9466    1.1231    0.9417 C   0  0  0  0  0  0  0  0  0  0  0  0
    2.9788    0.0839    0.9805 O   0  0  0  0  0  0  0  0  0  0  0  0
    2.6971   -0.7452   -0.3803 P   0  0  2  0  0  0  0  0  0  0  0  0
    3.5452   -2.2780   -0.6910 C   0  0  0  0  0  0  0  0  0  0  0  0
    1.7132   -0.2140   -1.3842 O   0  0  0  0  0  0  0  0  0  0  0  0
    0.9604   -1.9246    0.6977 S   0  0  0  0  0  0  0  0  0  0  0  0
   -0.4987   -0.8833    0.4020 C   0  0  0  0  0  0  0  0  0  0  0  0
   -0.2851    0.5463    0.9120 C   0  0  0  0  0  0  0  0  0  0  0  0
   -1.5824    1.3729    0.9035 N   0  0  1  0  0  0  0  0  0  0  0  0
   -1.4979    2.5320    1.9170 C   0  0  1  0  0  0  0  0  0  0  0  0
   -0.6382    3.6800    1.4037 C   0  0  0  0  0  0  0  0  0  0  0  0
   -2.9028    2.9826    2.3168 C   0  0  0  0  0  0  0  0  0  0  0  0
   -2.1609    1.7603   -0.4712 C   0  0  2  0  0  0  0  0  0  0  0  0
   -3.2178    0.7372   -0.8827 C   0  0  0  0  0  0  0  0  0  0  0  0
   -1.1009    1.9586   -1.5485 C   0  0  0  0  0  0  0  0  0  0  0  0
    4.6055    2.7100    2.2529 H   0  0  0  0  0  0  0  0  0  0  0  0
    4.0487    1.2444    3.0955 H   0  0  0  0  0  0  0  0  0  0  0  0
    2.8697    2.3324    2.3722 H   0  0  0  0  0  0  0  0  0  0  0  0
    4.9427    0.6859    0.8273 H   0  0  0  0  0  0  0  0  0  0  0  0
    3.7473    1.7854    0.0930 H   0  0  0  0  0  0  0  0  0  0  0  0
    2.9238   -2.9434   -1.2969 H   0  0  0  0  0  0  0  0  0  0  0  0
    3.7797   -2.7917    0.2461 H   0  0  0  0  0  0  0  0  0  0  0  0
    4.4799   -2.1083   -1.2326 H   0  0  0  0  0  0  0  0  0  0  0  0
   -1.3484   -1.3481    0.9120 H   0  0  0  0  0  0  0  0  0  0  0  0
   -0.7014   -0.9002   -0.6701 H   0  0  0  0  0  0  0  0  0  0  0  0
    0.0371    0.5008    1.9587 H   0  0  0  0  0  0  0  0  0  0  0  0
    0.4659    1.1051    0.3508 H   0  0  0  0  0  0  0  0  0  0  0  0
   -2.2792    0.7476    1.3288 H   0  0  0  0  0  0  0  0  0  0  0  0
   -1.0310    2.1102    2.8152 H   0  0  0  0  0  0  0  0  0  0  0  0
   -0.5084    4.4317    2.1904 H   0  0  0  0  0  0  0  0  0  0  0  0
   -1.0933    4.1870    0.5477 H   0  0  0  0  0  0  0  0  0  0  0  0
    0.3597    3.3387    1.1131 H   0  0  0  0  0  0  0  0  0  0  0  0
   -3.5146    2.1323    2.6365 H   0  0  0  0  0  0  0  0  0  0  0  0
   -2.8475    3.6828    3.1580 H   0  0  0  0  0  0  0  0  0  0  0  0
   -3.4278    3.4956    1.5059 H   0  0  0  0  0  0  0  0  0  0  0  0
   -2.6800    2.7132   -0.3377 H   0  0  0  0  0  0  0  0  0  0  0  0
   -3.9980    0.6513   -0.1185 H   0  0  0  0  0  0  0  0  0  0  0  0
   -3.7039    1.0478   -1.8144 H   0  0  0  0  0  0  0  0  0  0  0  0
   -2.7968   -0.2566   -1.0501 H   0  0  0  0  0  0  0  0  0  0  0  0
   -0.3260    2.6639   -1.2356 H   0  0  0  0  0  0  0  0  0  0  0  0
   -1.5638    2.3701   -2.4529 H   0  0  0  0  0  0  0  0  0  0  0  0
   -0.6208    1.0214   -1.8405 H   0  0  0  0  0  0  0  0  0  0  0  0
  1  2  1  0
  2  3  1  0
  4  3  1  1
  4  5  1  0
  4  6  2  0
  4  7  1  0
  7  8  1  0
  8  9  1  0
  9 10  1  0
 10 11  1  0
 11 12  1  0
 11 13  1  0
 10 14  1  0
 14 15  1  0
 14 16  1  0
  1 17  1  0
  1 18  1  0
  1 19  1  0
  2 20  1  0
  2 21  1  0
  5 22  1  0
  5 23  1  0
  5 24  1  0
  8 25  1  0
  8 26  1  0
  9 27  1  0
  9 28  1  0
 10 29  1  6
 11 30  1  6
 12 31  1  0
 12 32  1  0
 12 33  1  0
 13 34  1  0
 13 35  1  0
 13 36  1  0
 14 37  1  6
 15 38  1  0
 15 39  1  0
 15 40  1  0
 16 41  1  0
 16 42  1  0
 16 43  1  0
M  CHG  1  10   1
M  END
$$$$
