VX
     RDKit          3D

 43 42  0  0  0  0  0  0  0  0999 V2000
    3.1825    2.4631    1.0393 C   0  0  0  0  0  0  0  0  0  0  0  0
    3.9274    1.1484    0.9510 C   0  0  0  0  0  0  0  0  0  0  0  0
    2.9969    0.0644    0.9884 O   0  0  0  0  0  0  0  0  0  0  0  0
    2.6871   -0.7347   -0.3850 P   0  0  2  0  0  0  0  0  0  0  0  0
    3.5462   -2.2655   -0.6757 C   0  0  0  0  0  0  0  0  0  0  0  0
    1.7040   -0.2175   -1.4029 O   0  0  0  0  0  0  0  0  0  0  0  0
    0.9504   -1.9142    0.6931 S   0  0  0  0  0  0  0  0  0  0  0  0
   -0.3069   -0.6410    1.0090 C   0  0  0  0  0  0  0  0  0  0  0  0
   -1.5528   -0.8670    0.1576 C   0  0  0  0  0  0  0  0  0  0  0  0
   -1.5316   -0.1018   -1.1990 N   0  0  1  0  0  0  0  0  0  0  0  0
   -1.1243   -1.0828   -2.3369 C   0  0  1  0  0  0  0  0  0  0  0  0
   -2.2926   -1.9653   -2.7707 C   0  0  0  0  0  0  0  0  0  0  0  0
   -0.4757   -0.3568   -3.5218 C   0  0  0  0  0  0  0  0  0  0  0  0
   -2.8171    0.7382   -1.3861 C   0  0  1  0  0  0  0  0  0  0  0  0
   -2.9580    1.7706   -0.2582 C   0  0  0  0  0  0  0  0  0  0  0  0
   -2.8263    1.4928   -2.7181 C   0  0  0  0  0  0  0  0  0  0  0  0
    3.8851    3.3055    1.0309 H   0  0  0  0  0  0  0  0  0  0  0  0
    2.5509    2.5129    1.9269 H   0  0  0  0  0  0  0  0  0  0  0  0
    2.5090    2.5685    0.1813 H   0  0  0  0  0  0  0  0  0  0  0  0
    4.6177    1.0302    1.7841 H   0  0  0  0  0  0  0  0  0  0  0  0
    4.5002    1.1489    0.0177 H   0  0  0  0  0  0  0  0  0  0  0  0
    4.5415   -2.1168   -1.1271 H   0  0  0  0  0  0  0  0  0  0  0  0
    2.9626   -2.9258   -1.3187 H   0  0  0  0  0  0  0  0  0  0  0  0
    3.7019   -2.7847    0.2861 H   0  0  0  0  0  0  0  0  0  0  0  0
    0.1122    0.3619    0.8879 H   0  0  0  0  0  0  0  0  0  0  0  0
   -0.5704   -0.7366    2.0740 H   0  0  0  0  0  0  0  0  0  0  0  0
   -2.4170   -0.5118    0.7341 H   0  0  0  0  0  0  0  0  0  0  0  0
   -1.7395   -1.9343   -0.0501 H   0  0  0  0  0  0  0  0  0  0  0  0
   -0.7429    0.5742   -1.1646 H   0  0  0  0  0  0  0  0  0  0  0  0
   -0.3480   -1.7216   -1.9097 H   0  0  0  0  0  0  0  0  0  0  0  0
   -1.9368   -2.7416   -3.4590 H   0  0  0  0  0  0  0  0  0  0  0  0
   -2.7760   -2.4555   -1.9163 H   0  0  0  0  0  0  0  0  0  0  0  0
   -3.0643   -1.4030   -3.2996 H   0  0  0  0  0  0  0  0  0  0  0  0
    0.2104    0.4339   -3.2178 H   0  0  0  0  0  0  0  0  0  0  0  0
   -1.2075    0.0686   -4.2067 H   0  0  0  0  0  0  0  0  0  0  0  0
    0.0948   -1.0635   -4.1532 H   0  0  0  0  0  0  0  0  0  0  0  0
   -3.6579    0.0226   -1.3576 H   0  0  0  0  0  0  0  0  0  0  0  0
   -3.2847    1.3158    0.6905 H   0  0  0  0  0  0  0  0  0  0  0  0
   -3.7257    2.5207   -0.5045 H   0  0  0  0  0  0  0  0  0  0  0  0
   -2.0256    2.3283   -0.0765 H   0  0  0  0  0  0  0  0  0  0  0  0
   -1.9046    2.0635   -2.8833 H   0  0  0  0  0  0  0  0  0  0  0  0
   -2.9866    0.8242   -3.5728 H   0  0  0  0  0  0  0  0  0  0  0  0
   -3.6891    2.1813   -2.7467 H   0  0  0  0  0  0  0  0  0  0  0  0
  1  2  1  0
  2  3  1  0
  4  3  1  1
  4  5  1  0
  4  6  2  0
  4  7  1  0
  7  8  1  0
  8  9  1  0
  9 10  1  0
 10 11  1  0
 11 12  1  0
 11 13  1  0
 10 14  1  0
 14 15  1  0
 14 16  1  0
  1 17  1  0
  1 18  1  0
  1 19  1  0
  2 20  1  0
  2 21  1  0
  5 22  1  0
  5 23  1  0
  5 24  1  0
  8 25  1  0
  8 26  1  0
  9 27  1  0
  9 28  1  0
 10 29  1  6
 11 30  1  6
 12 31  1  0
 12 32  1  0
 12 33  1  0
 13 34  1  0
 13 35  1  0
 13 36  1  0
 14 37  1  6
 15 38  1  0
 15 39  1  0
 15 40  1  0
 16 41  1  0
 16 42  1  0
 16 43  1  0
M  CHG  1  10   1
M  END
$$$$
