VX
     RDKit          3D

 43 42  0  0  0  0  0  0  0  0999 V2000
    4.2504    1.5971    2.3100 C   0  0  0  0  0  0  0  0  0  0  0  0
    3.7959    1.2320    0.9123 C   0  0  0  0  0  0  0  0  0  0  0  0
    2.9980    0.0602    0.9855 O   0  0  0  0  0  0  0  0  0  0  0  0
    2.6844   -0.7310   -0.3853 P   0  0  2  0  0  0  0  0  0  0  0  0
    3.5472   -2.2648   -0.6733 C   0  0  0  0  0  0  0  0  0  0  0  0
    1.7047   -0.2178   -1.4021 O   0  0  0  0  0  0  0  0  0  0  0  0
    0.9476   -1.9104    0.6928 S   0  0  0  0  0  0  0  0  0  0  0  0
   -0.1318   -2.4753   -0.6635 C   0  0  0  0  0  0  0  0  0  0  0  0
   -1.0551   -1.3605   -1.1762 C   0  0  0  0  0  0  0  0  0  0  0  0
   -1.8067   -0.6364   -0.0476 N   0  0  1  0  0  0  0  0  0  0  0  0
   -2.2914    0.7972   -0.3810 C   0  0  2  0  0  0  0  0  0  0  0  0
   -1.4258    1.5207   -1.4100 C   0  0  0  0  0  0  0  0  0  0  0  0
   -2.2943    1.6187    0.9156 C   0  0  0  0  0  0  0  0  0  0  0  0
   -2.9462   -1.4363    0.6318 C   0  0  1  0  0  0  0  0  0  0  0  0
   -3.7138   -2.3164   -0.3479 C   0  0  0  0  0  0  0  0  0  0  0  0
   -2.4302   -2.2082    1.8401 C   0  0  0  0  0  0  0  0  0  0  0  0
    4.8356    0.7821    2.7487 H   0  0  0  0  0  0  0  0  0  0  0  0
    3.3893    1.7606    2.9667 H   0  0  0  0  0  0  0  0  0  0  0  0
    4.8621    2.5034    2.2981 H   0  0  0  0  0  0  0  0  0  0  0  0
    4.6634    1.0583    0.2688 H   0  0  0  0  0  0  0  0  0  0  0  0
    3.1956    2.0421    0.4861 H   0  0  0  0  0  0  0  0  0  0  0  0
    2.9398   -2.9353   -1.2867 H   0  0  0  0  0  0  0  0  0  0  0  0
    3.7648   -2.7688    0.2723 H   0  0  0  0  0  0  0  0  0  0  0  0
    4.4923   -2.0924   -1.1938 H   0  0  0  0  0  0  0  0  0  0  0  0
    0.4964   -2.8408   -1.4818 H   0  0  0  0  0  0  0  0  0  0  0  0
   -0.7157   -3.3289   -0.3120 H   0  0  0  0  0  0  0  0  0  0  0  0
   -0.4339   -0.6327   -1.6908 H   0  0  0  0  0  0  0  0  0  0  0  0
   -1.7843   -1.7239   -1.9046 H   0  0  0  0  0  0  0  0  0  0  0  0
   -1.0726   -0.5055    0.6670 H   0  0  0  0  0  0  0  0  0  0  0  0
   -3.3078    0.6994   -0.7795 H   0  0  0  0  0  0  0  0  0  0  0  0
   -1.5027    1.0574   -2.3988 H   0  0  0  0  0  0  0  0  0  0  0  0
   -0.3750    1.5549   -1.1049 H   0  0  0  0  0  0  0  0  0  0  0  0
   -1.7644    2.5564   -1.5299 H   0  0  0  0  0  0  0  0  0  0  0  0
   -1.2792    1.7311    1.3125 H   0  0  0  0  0  0  0  0  0  0  0  0
   -2.6924    2.6225    0.7294 H   0  0  0  0  0  0  0  0  0  0  0  0
   -2.9100    1.1713    1.6999 H   0  0  0  0  0  0  0  0  0  0  0  0
   -3.6565   -0.6970    1.0172 H   0  0  0  0  0  0  0  0  0  0  0  0
   -3.1166   -3.1600   -0.7052 H   0  0  0  0  0  0  0  0  0  0  0  0
   -4.0627   -1.7402   -1.2108 H   0  0  0  0  0  0  0  0  0  0  0  0
   -4.5989   -2.7379    0.1418 H   0  0  0  0  0  0  0  0  0  0  0  0
   -3.2738   -2.6178    2.4082 H   0  0  0  0  0  0  0  0  0  0  0  0
   -1.7999   -3.0545    1.5631 H   0  0  0  0  0  0  0  0  0  0  0  0
   -1.8689   -1.5561    2.5175 H   0  0  0  0  0  0  0  0  0  0  0  0
  1  2  1  0
  2  3  1  0
  4  3  1  1
  4  5  1  0
  4  6  2  0
  4  7  1  0
  7  8  1  0
  8  9  1  0
  9 10  1  0
 10 11  1  0
 11 12  1  0
 11 13  1  0
 10 14  1  0
 14 15  1  0
 14 16  1  0
  1 17  1  0
  1 18  1  0
  1 19  1  0
  2 20  1  0
  2 21  1  0
  5 22  1  0
  5 23  1  0
  5 24  1  0
  8 25  1  0
  8 26  1  0
  9 27  1  0
  9 28  1  0
 10 29  1  6
 11 30  1  6
 12 31  1  0
 12 32  1  0
 12 33  1  0
 13 34  1  0
 13 35  1  0
 13 36  1  0
 14 37  1  1
 15 38  1  0
 15 39  1  0
 15 40  1  0
 16 41  1  0
 16 42  1  0
 16 43  1  0
M  CHG  1  10   1
M  END
$$$$
