VX
     RDKit          3D

 43 42  0  0  0  0  0  0  0  0999 V2000
    3.8433    1.8980    2.2526 C   0  0  0  0  0  0  0  0  0  0  0  0
    3.9365    1.1281    0.9515 C   0  0  0  0  0  0  0  0  0  0  0  0
    2.9871    0.0735    0.9825 O   0  0  0  0  0  0  0  0  0  0  0  0
    2.6920   -0.7391   -0.3819 P   0  0  2  0  0  0  0  0  0  0  0  0
    3.5467   -2.2729   -0.6831 C   0  0  0  0  0  0  0  0  0  0  0  0
    1.7084   -0.2148   -1.3928 O   0  0  0  0  0  0  0  0  0  0  0  0
    0.9553   -1.9186    0.6962 S   0  0  0  0  0  0  0  0  0  0  0  0
   -0.3577   -0.6658    0.8185 C   0  0  0  0  0  0  0  0  0  0  0  0
   -1.1291   -0.5544   -0.4996 C   0  0  0  0  0  0  0  0  0  0  0  0
   -1.8867    0.7702   -0.6948 N   0  0  1  0  0  0  0  0  0  0  0  0
   -3.2626    0.8226   -0.0292 C   0  0  1  0  0  0  0  0  0  0  0  0
   -3.2495    1.0657    1.4740 C   0  0  0  0  0  0  0  0  0  0  0  0
   -4.1744    1.8134   -0.7496 C   0  0  0  0  0  0  0  0  0  0  0  0
   -0.9479    1.9848   -0.7973 C   0  0  1  0  0  0  0  0  0  0  0  0
   -1.2283    2.7553   -2.0883 C   0  0  0  0  0  0  0  0  0  0  0  0
   -0.9685    2.9002    0.4159 C   0  0  0  0  0  0  0  0  0  0  0  0
    2.8404    2.3209    2.3788 H   0  0  0  0  0  0  0  0  0  0  0  0
    4.0191    1.2355    3.1069 H   0  0  0  0  0  0  0  0  0  0  0  0
    4.5743    2.7109    2.2790 H   0  0  0  0  0  0  0  0  0  0  0  0
    4.9399    0.7085    0.8342 H   0  0  0  0  0  0  0  0  0  0  0  0
    3.7267    1.7926    0.1077 H   0  0  0  0  0  0  0  0  0  0  0  0
    3.7780   -2.7802    0.2581 H   0  0  0  0  0  0  0  0  0  0  0  0
    2.9255   -2.9391   -1.2889 H   0  0  0  0  0  0  0  0  0  0  0  0
    4.4826   -2.1032   -1.2223 H   0  0  0  0  0  0  0  0  0  0  0  0
   -1.0250   -0.9835    1.6223 H   0  0  0  0  0  0  0  0  0  0  0  0
    0.1105    0.2752    1.1126 H   0  0  0  0  0  0  0  0  0  0  0  0
   -1.8697   -1.3586   -0.5830 H   0  0  0  0  0  0  0  0  0  0  0  0
   -0.4822   -0.6368   -1.3776 H   0  0  0  0  0  0  0  0  0  0  0  0
   -2.1616    0.6459   -1.6782 H   0  0  0  0  0  0  0  0  0  0  0  0
   -3.6884   -0.1746   -0.1999 H   0  0  0  0  0  0  0  0  0  0  0  0
   -2.5000    0.4748    2.0009 H   0  0  0  0  0  0  0  0  0  0  0  0
   -3.1066    2.1182    1.7328 H   0  0  0  0  0  0  0  0  0  0  0  0
   -4.2252    0.7870    1.8929 H   0  0  0  0  0  0  0  0  0  0  0  0
   -4.1882    1.6318   -1.8300 H   0  0  0  0  0  0  0  0  0  0  0  0
   -3.8747    2.8499   -0.5748 H   0  0  0  0  0  0  0  0  0  0  0  0
   -5.2036    1.7085   -0.3873 H   0  0  0  0  0  0  0  0  0  0  0  0
    0.0636    1.5788   -0.8916 H   0  0  0  0  0  0  0  0  0  0  0  0
   -0.4808    3.5439   -2.2283 H   0  0  0  0  0  0  0  0  0  0  0  0
   -1.1740    2.0972   -2.9618 H   0  0  0  0  0  0  0  0  0  0  0  0
   -2.2104    3.2344   -2.0828 H   0  0  0  0  0  0  0  0  0  0  0  0
   -1.9003    3.4679    0.4872 H   0  0  0  0  0  0  0  0  0  0  0  0
   -0.1614    3.6389    0.3393 H   0  0  0  0  0  0  0  0  0  0  0  0
   -0.8078    2.3523    1.3470 H   0  0  0  0  0  0  0  0  0  0  0  0
  1  2  1  0
  2  3  1  0
  4  3  1  1
  4  5  1  0
  4  6  2  0
  4  7  1  0
  7  8  1  0
  8  9  1  0
  9 10  1  0
 10 11  1  0
 11 12  1  0
 11 13  1  0
 10 14  1  0
 14 15  1  0
 14 16  1  0
  1 17  1  0
  1 18  1  0
  1 19  1  0
  2 20  1  0
  2 21  1  0
  5 22  1  0
  5 23  1  0
  5 24  1  0
  8 25  1  0
  8 26  1  0
  9 27  1  0
  9 28  1  0
 10 29  1  1
 11 30  1  6
 12 31  1  0
 12 32  1  0
 12 33  1  0
 13 34  1  0
 13 35  1  0
 13 36  1  0
 14 37  1  6
 15 38  1  0
 15 39  1  0
 15 40  1  0
 16 41  1  0
 16 42  1  0
 16 43  1  0
M  CHG  1  10   1
M  END
$$$$
