VX
     RDKit          3D

 43 42  0  0  0  0  0  0  0  0999 V2000
    3.7914    1.9905    2.1528 C   0  0  0  0  0  0  0  0  0  0  0  0
    4.0020    1.0680    0.9702 C   0  0  0  0  0  0  0  0  0  0  0  0
    2.9818    0.0800    0.9811 O   0  0  0  0  0  0  0  0  0  0  0  0
    2.6954   -0.7430   -0.3806 P   0  0  2  0  0  0  0  0  0  0  0  0
    3.5460   -2.2764   -0.6880 C   0  0  0  0  0  0  0  0  0  0  0  0
    1.7110   -0.2139   -1.3877 O   0  0  0  0  0  0  0  0  0  0  0  0
    0.9587   -1.9224    0.6974 S   0  0  0  0  0  0  0  0  0  0  0  0
   -0.5301   -1.0031    0.2074 C   0  0  0  0  0  0  0  0  0  0  0  0
   -0.5755    0.3865    0.8461 C   0  0  0  0  0  0  0  0  0  0  0  0
   -1.4563    1.4085    0.1032 N   0  0  1  0  0  0  0  0  0  0  0  0
   -0.8016    1.9428   -1.2025 C   0  0  2  0  0  0  0  0  0  0  0  0
    0.4497    2.7595   -0.8521 C   0  0  0  0  0  0  0  0  0  0  0  0
   -1.7524    2.8689   -1.9689 C   0  0  0  0  0  0  0  0  0  0  0  0
   -2.9576    1.0864    0.0324 C   0  0  2  0  0  0  0  0  0  0  0  0
   -3.5128    0.7839    1.4235 C   0  0  0  0  0  0  0  0  0  0  0  0
   -3.2976   -0.0138   -0.9670 C   0  0  0  0  0  0  0  0  0  0  0  0
    2.8095    2.4718    2.0950 H   0  0  0  0  0  0  0  0  0  0  0  0
    4.5626    2.7649    2.1862 H   0  0  0  0  0  0  0  0  0  0  0  0
    3.8148    1.4269    3.0911 H   0  0  0  0  0  0  0  0  0  0  0  0
    3.9628    1.6397    0.0377 H   0  0  0  0  0  0  0  0  0  0  0  0
    4.9758    0.5753    1.0452 H   0  0  0  0  0  0  0  0  0  0  0  0
    2.9243   -2.9419   -1.2935 H   0  0  0  0  0  0  0  0  0  0  0  0
    4.4807   -2.1051   -1.2287 H   0  0  0  0  0  0  0  0  0  0  0  0
    3.7803   -2.7862    0.2509 H   0  0  0  0  0  0  0  0  0  0  0  0
   -1.3833   -1.5955    0.5468 H   0  0  0  0  0  0  0  0  0  0  0  0
   -0.5582   -0.9636   -0.8836 H   0  0  0  0  0  0  0  0  0  0  0  0
   -0.9612    0.3264    1.8695 H   0  0  0  0  0  0  0  0  0  0  0  0
    0.4131    0.8385    0.9345 H   0  0  0  0  0  0  0  0  0  0  0  0
   -1.4306    2.2292    0.7231 H   0  0  0  0  0  0  0  0  0  0  0  0
   -0.5469    1.0771   -1.8194 H   0  0  0  0  0  0  0  0  0  0  0  0
    1.2362    2.1595   -0.3932 H   0  0  0  0  0  0  0  0  0  0  0  0
    0.2108    3.5798   -0.1660 H   0  0  0  0  0  0  0  0  0  0  0  0
    0.8856    3.1988   -1.7566 H   0  0  0  0  0  0  0  0  0  0  0  0
   -2.6159    2.3350   -2.3742 H   0  0  0  0  0  0  0  0  0  0  0  0
   -2.1136    3.6871   -1.3361 H   0  0  0  0  0  0  0  0  0  0  0  0
   -1.2396    3.3175   -2.8280 H   0  0  0  0  0  0  0  0  0  0  0  0
   -3.4358    2.0173   -0.2899 H   0  0  0  0  0  0  0  0  0  0  0  0
   -3.2289    1.5609    2.1412 H   0  0  0  0  0  0  0  0  0  0  0  0
   -4.6073    0.7475    1.3916 H   0  0  0  0  0  0  0  0  0  0  0  0
   -3.1701   -0.1829    1.8046 H   0  0  0  0  0  0  0  0  0  0  0  0
   -2.7463    0.0775   -1.9058 H   0  0  0  0  0  0  0  0  0  0  0  0
   -3.1248   -1.0141   -0.5641 H   0  0  0  0  0  0  0  0  0  0  0  0
   -4.3653    0.0343   -1.2123 H   0  0  0  0  0  0  0  0  0  0  0  0
  1  2  1  0
  2  3  1  0
  4  3  1  1
  4  5  1  0
  4  6  2  0
  4  7  1  0
  7  8  1  0
  8  9  1  0
  9 10  1  0
 10 11  1  0
 11 12  1  0
 11 13  1  0
 10 14  1  0
 14 15  1  0
 14 16  1  0
  1 17  1  0
  1 18  1  0
  1 19  1  0
  2 20  1  0
  2 21  1  0
  5 22  1  0
  5 23  1  0
  5 24  1  0
  8 25  1  0
  8 26  1  0
  9 27  1  0
  9 28  1  0
 10 29  1  6
 11 30  1  6
 12 31  1  0
 12 32  1  0
 12 33  1  0
 13 34  1  0
 13 35  1  0
 13 36  1  0
 14 37  1  1
 15 38  1  0
 15 39  1  0
 15 40  1  0
 16 41  1  0
 16 42  1  0
 16 43  1  0
M  CHG  1  10   1
M  END
$$$$
