VX
     RDKit          3D

 43 42  0  0  0  0  0  0  0  0999 V2000
    4.8796    1.0134    2.0900 C   0  0  0  0  0  0  0  0  0  0  0  0
    3.9031    1.1590    0.9416 C   0  0  0  0  0  0  0  0  0  0  0  0
    2.9864    0.0745    0.9824 O   0  0  0  0  0  0  0  0  0  0  0  0
    2.6920   -0.7393   -0.3821 P   0  0  2  0  0  0  0  0  0  0  0  0
    3.5465   -2.2735   -0.6839 C   0  0  0  0  0  0  0  0  0  0  0  0
    1.7093   -0.2150   -1.3916 O   0  0  0  0  0  0  0  0  0  0  0  0
    0.9553   -1.9187    0.6960 S   0  0  0  0  0  0  0  0  0  0  0  0
   -0.2208   -0.6452    1.2325 C   0  0  0  0  0  0  0  0  0  0  0  0
   -0.7187    0.2168    0.0668 C   0  0  0  0  0  0  0  0  0  0  0  0
   -1.8541    1.1735    0.4769 N   0  0  1  0  0  0  0  0  0  0  0  0
   -1.9016    2.3872   -0.4779 C   0  0  2  0  0  0  0  0  0  0  0  0
   -2.6100    3.5599    0.1998 C   0  0  0  0  0  0  0  0  0  0  0  0
   -2.5160    2.0284   -1.8254 C   0  0  0  0  0  0  0  0  0  0  0  0
   -3.2296    0.5571    0.7904 C   0  0  2  0  0  0  0  0  0  0  0  0
   -3.3927    0.4240    2.3034 C   0  0  0  0  0  0  0  0  0  0  0  0
   -3.4921   -0.7546    0.0587 C   0  0  0  0  0  0  0  0  0  0  0  0
    5.4378    0.0751    2.0028 H   0  0  0  0  0  0  0  0  0  0  0  0
    4.3492    0.9807    3.0476 H   0  0  0  0  0  0  0  0  0  0  0  0
    5.5888    1.8457    2.1066 H   0  0  0  0  0  0  0  0  0  0  0  0
    3.3336    2.0879    1.0415 H   0  0  0  0  0  0  0  0  0  0  0  0
    4.4403    1.1885   -0.0117 H   0  0  0  0  0  0  0  0  0  0  0  0
    2.9351   -2.9344   -1.3047 H   0  0  0  0  0  0  0  0  0  0  0  0
    4.4927   -2.1023   -1.2038 H   0  0  0  0  0  0  0  0  0  0  0  0
    3.7614   -2.7879    0.2571 H   0  0  0  0  0  0  0  0  0  0  0  0
   -1.0391   -1.1774    1.7169 H   0  0  0  0  0  0  0  0  0  0  0  0
    0.2593   -0.0161    1.9892 H   0  0  0  0  0  0  0  0  0  0  0  0
    0.0974    0.8669   -0.2549 H   0  0  0  0  0  0  0  0  0  0  0  0
   -1.0646   -0.3695   -0.7888 H   0  0  0  0  0  0  0  0  0  0  0  0
   -1.5243    1.5881    1.3579 H   0  0  0  0  0  0  0  0  0  0  0  0
   -0.8590    2.6915   -0.6292 H   0  0  0  0  0  0  0  0  0  0  0  0
   -3.6814    3.3867    0.3338 H   0  0  0  0  0  0  0  0  0  0  0  0
   -2.1723    3.7715    1.1810 H   0  0  0  0  0  0  0  0  0  0  0  0
   -2.5040    4.4641   -0.4098 H   0  0  0  0  0  0  0  0  0  0  0  0
   -3.5758    1.7690   -1.7437 H   0  0  0  0  0  0  0  0  0  0  0  0
   -2.4458    2.8830   -2.5080 H   0  0  0  0  0  0  0  0  0  0  0  0
   -1.9924    1.1921   -2.2979 H   0  0  0  0  0  0  0  0  0  0  0  0
   -3.9841    1.2748    0.4566 H   0  0  0  0  0  0  0  0  0  0  0  0
   -4.4046    0.0824    2.5472 H   0  0  0  0  0  0  0  0  0  0  0  0
   -3.2458    1.3899    2.7994 H   0  0  0  0  0  0  0  0  0  0  0  0
   -2.6925   -0.2907    2.7416 H   0  0  0  0  0  0  0  0  0  0  0  0
   -3.3730   -0.6450   -1.0232 H   0  0  0  0  0  0  0  0  0  0  0  0
   -2.8425   -1.5649    0.4000 H   0  0  0  0  0  0  0  0  0  0  0  0
   -4.5235   -1.0798    0.2367 H   0  0  0  0  0  0  0  0  0  0  0  0
  1  2  1  0
  2  3  1  0
  4  3  1  1
  4  5  1  0
  4  6  2  0
  4  7  1  0
  7  8  1  0
  8  9  1  0
  9 10  1  0
 10 11  1  0
 11 12  1  0
 11 13  1  0
 10 14  1  0
 14 15  1  0
 14 16  1  0
  1 17  1  0
  1 18  1  0
  1 19  1  0
  2 20  1  0
  2 21  1  0
  5 22  1  0
  5 23  1  0
  5 24  1  0
  8 25  1  0
  8 26  1  0
  9 27  1  0
  9 28  1  0
 10 29  1  6
 11 30  1  6
 12 31  1  0
 12 32  1  0
 12 33  1  0
 13 34  1  0
 13 35  1  0
 13 36  1  0
 14 37  1  1
 15 38  1  0
 15 39  1  0
 15 40  1  0
 16 41  1  0
 16 42  1  0
 16 43  1  0
M  CHG  1  10   1
M  END
$$$$
