VX
     RDKit          3D

 43 42  0  0  0  0  0  0  0  0999 V2000
    3.2109    0.2596    3.3416 C   0  0  0  0  0  0  0  0  0  0  0  0
    3.5374   -0.5586    2.1095 C   0  0  0  0  0  0  0  0  0  0  0  0
    2.9751    0.0871    0.9782 O   0  0  0  0  0  0  0  0  0  0  0  0
    2.6994   -0.7470   -0.3786 P   0  0  2  0  0  0  0  0  0  0  0  0
    3.5458   -2.2812   -0.6935 C   0  0  0  0  0  0  0  0  0  0  0  0
    1.7139   -0.2122   -1.3812 O   0  0  0  0  0  0  0  0  0  0  0  0
    0.9626   -1.9264    0.6995 S   0  0  0  0  0  0  0  0  0  0  0  0
   -0.5260   -0.9862    0.2433 C   0  0  0  0  0  0  0  0  0  0  0  0
   -0.4309    0.4858    0.6747 C   0  0  0  0  0  0  0  0  0  0  0  0
   -1.7240    1.2538    0.3613 N   0  0  1  0  0  0  0  0  0  0  0  0
   -2.2995    2.0618    1.5401 C   0  0  2  0  0  0  0  0  0  0  0  0
   -1.2376    2.8281    2.3279 C   0  0  0  0  0  0  0  0  0  0  0  0
   -3.0792    1.1089    2.4472 C   0  0  0  0  0  0  0  0  0  0  0  0
   -1.7575    2.0292   -0.9711 C   0  0  1  0  0  0  0  0  0  0  0  0
   -0.7917    3.2066   -1.0083 C   0  0  0  0  0  0  0  0  0  0  0  0
   -1.5470    1.0887   -2.1523 C   0  0  0  0  0  0  0  0  0  0  0  0
    2.1268    0.3484    3.4683 H   0  0  0  0  0  0  0  0  0  0  0  0
    3.6350   -0.1996    4.2390 H   0  0  0  0  0  0  0  0  0  0  0  0
    3.6044    1.2768    3.2453 H   0  0  0  0  0  0  0  0  0  0  0  0
    4.6214   -0.6232    1.9770 H   0  0  0  0  0  0  0  0  0  0  0  0
    3.1329   -1.5695    2.2141 H   0  0  0  0  0  0  0  0  0  0  0  0
    4.5154   -2.0940   -1.1635 H   0  0  0  0  0  0  0  0  0  0  0  0
    2.9557   -2.9080   -1.3685 H   0  0  0  0  0  0  0  0  0  0  0  0
    3.7126   -2.8451    0.2282 H   0  0  0  0  0  0  0  0  0  0  0  0
   -1.3818   -1.4636    0.7322 H   0  0  0  0  0  0  0  0  0  0  0  0
   -0.6687   -1.0879   -0.8336 H   0  0  0  0  0  0  0  0  0  0  0  0
   -0.2903    0.5053    1.7581 H   0  0  0  0  0  0  0  0  0  0  0  0
    0.3947    1.0288    0.2166 H   0  0  0  0  0  0  0  0  0  0  0  0
   -2.4338    0.5271    0.2051 H   0  0  0  0  0  0  0  0  0  0  0  0
   -3.0107    2.7738    1.1060 H   0  0  0  0  0  0  0  0  0  0  0  0
   -0.5186    3.3436    1.6893 H   0  0  0  0  0  0  0  0  0  0  0  0
   -0.6759    2.1800    3.0083 H   0  0  0  0  0  0  0  0  0  0  0  0
   -1.7225    3.5858    2.9541 H   0  0  0  0  0  0  0  0  0  0  0  0
   -2.4330    0.3377    2.8792 H   0  0  0  0  0  0  0  0  0  0  0  0
   -3.8811    0.6078    1.8944 H   0  0  0  0  0  0  0  0  0  0  0  0
   -3.5420    1.6598    3.2730 H   0  0  0  0  0  0  0  0  0  0  0  0
   -2.7821    2.4135   -1.0501 H   0  0  0  0  0  0  0  0  0  0  0  0
    0.2415    2.9157   -0.8027 H   0  0  0  0  0  0  0  0  0  0  0  0
   -1.0860    3.9849   -0.2994 H   0  0  0  0  0  0  0  0  0  0  0  0
   -0.8053    3.6739   -1.9998 H   0  0  0  0  0  0  0  0  0  0  0  0
   -2.2176    0.2251   -2.0997 H   0  0  0  0  0  0  0  0  0  0  0  0
   -0.5151    0.7346   -2.2138 H   0  0  0  0  0  0  0  0  0  0  0  0
   -1.7625    1.6102   -3.0918 H   0  0  0  0  0  0  0  0  0  0  0  0
  1  2  1  0
  2  3  1  0
  4  3  1  1
  4  5  1  0
  4  6  2  0
  4  7  1  0
  7  8  1  0
  8  9  1  0
  9 10  1  0
 10 11  1  0
 11 12  1  0
 11 13  1  0
 10 14  1  0
 14 15  1  0
 14 16  1  0
  1 17  1  0
  1 18  1  0
  1 19  1  0
  2 20  1  0
  2 21  1  0
  5 22  1  0
  5 23  1  0
  5 24  1  0
  8 25  1  0
  8 26  1  0
  9 27  1  0
  9 28  1  0
 10 29  1  1
 11 30  1  6
 12 31  1  0
 12 32  1  0
 12 33  1  0
 13 34  1  0
 13 35  1  0
 13 36  1  0
 14 37  1  6
 15 38  1  0
 15 39  1  0
 15 40  1  0
 16 41  1  0
 16 42  1  0
 16 43  1  0
M  CHG  1  10   1
M  END
$$$$
