VX
     RDKit          3D

 43 42  0  0  0  0  0  0  0  0999 V2000
    3.3337    0.2787    3.3359 C   0  0  0  0  0  0  0  0  0  0  0  0
    3.5270   -0.5979    2.1120 C   0  0  0  0  0  0  0  0  0  0  0  0
    2.9885    0.0730    0.9842 O   0  0  0  0  0  0  0  0  0  0  0  0
    2.6909   -0.7380   -0.3825 P   0  0  2  0  0  0  0  0  0  0  0  0
    3.5474   -2.2734   -0.6824 C   0  0  0  0  0  0  0  0  0  0  0  0
    1.7075   -0.2149   -1.3944 O   0  0  0  0  0  0  0  0  0  0  0  0
    0.9541   -1.9175    0.6956 S   0  0  0  0  0  0  0  0  0  0  0  0
   -0.3406   -0.6470    0.8101 C   0  0  0  0  0  0  0  0  0  0  0  0
   -1.7196   -1.2973    0.8777 C   0  0  0  0  0  0  0  0  0  0  0  0
   -2.8815   -0.3633    0.4925 N   0  0  2  0  0  0  0  0  0  0  0  0
   -2.8556    0.1159   -0.9865 C   0  0  1  0  0  0  0  0  0  0  0  0
   -2.6739   -1.0743   -1.9332 C   0  0  0  0  0  0  0  0  0  0  0  0
   -4.1661    0.8275   -1.3330 C   0  0  0  0  0  0  0  0  0  0  0  0
   -3.2524    0.7210    1.5222 C   0  0  1  0  0  0  0  0  0  0  0  0
   -3.3636    0.1357    2.9290 C   0  0  0  0  0  0  0  0  0  0  0  0
   -2.3227    1.9295    1.4878 C   0  0  0  0  0  0  0  0  0  0  0  0
    3.7416   -0.2072    4.2281 H   0  0  0  0  0  0  0  0  0  0  0  0
    2.2699    0.4861    3.4986 H   0  0  0  0  0  0  0  0  0  0  0  0
    3.8309    1.2474    3.1994 H   0  0  0  0  0  0  0  0  0  0  0  0
    4.5949   -0.7756    1.9463 H   0  0  0  0  0  0  0  0  0  0  0  0
    3.0244   -1.5603    2.2565 H   0  0  0  0  0  0  0  0  0  0  0  0
    3.6922   -2.8343    0.2456 H   0  0  0  0  0  0  0  0  0  0  0  0
    4.5289   -2.0840   -1.1304 H   0  0  0  0  0  0  0  0  0  0  0  0
    2.9703   -2.8998   -1.3719 H   0  0  0  0  0  0  0  0  0  0  0  0
   -0.1388   -0.0560    1.7084 H   0  0  0  0  0  0  0  0  0  0  0  0
   -0.2567    0.0134   -0.0544 H   0  0  0  0  0  0  0  0  0  0  0  0
   -1.9257   -1.6825    1.8825 H   0  0  0  0  0  0  0  0  0  0  0  0
   -1.8024   -2.1628    0.2117 H   0  0  0  0  0  0  0  0  0  0  0  0
   -3.6942   -0.9951    0.5199 H   0  0  0  0  0  0  0  0  0  0  0  0
   -2.0143    0.8070   -1.0965 H   0  0  0  0  0  0  0  0  0  0  0  0
   -2.7986   -0.7639   -2.9776 H   0  0  0  0  0  0  0  0  0  0  0  0
   -1.6679   -1.4989   -1.8586 H   0  0  0  0  0  0  0  0  0  0  0  0
   -3.4046   -1.8656   -1.7284 H   0  0  0  0  0  0  0  0  0  0  0  0
   -5.0368    0.2118   -1.0779 H   0  0  0  0  0  0  0  0  0  0  0  0
   -4.2126    1.0517   -2.4060 H   0  0  0  0  0  0  0  0  0  0  0  0
   -4.2531    1.7861   -0.8133 H   0  0  0  0  0  0  0  0  0  0  0  0
   -4.2612    1.0454    1.2445 H   0  0  0  0  0  0  0  0  0  0  0  0
   -3.8327    0.8612    3.6030 H   0  0  0  0  0  0  0  0  0  0  0  0
   -3.9815   -0.7694    2.9408 H   0  0  0  0  0  0  0  0  0  0  0  0
   -2.3818   -0.1025    3.3542 H   0  0  0  0  0  0  0  0  0  0  0  0
   -2.2321    2.3605    0.4869 H   0  0  0  0  0  0  0  0  0  0  0  0
   -2.7250    2.7222    2.1319 H   0  0  0  0  0  0  0  0  0  0  0  0
   -1.3203    1.7044    1.8585 H   0  0  0  0  0  0  0  0  0  0  0  0
  1  2  1  0
  2  3  1  0
  4  3  1  1
  4  5  1  0
  4  6  2  0
  4  7  1  0
  7  8  1  0
  8  9  1  0
  9 10  1  0
 10 11  1  0
 11 12  1  0
 11 13  1  0
 10 14  1  0
 14 15  1  0
 14 16  1  0
  1 17  1  0
  1 18  1  0
  1 19  1  0
  2 20  1  0
  2 21  1  0
  5 22  1  0
  5 23  1  0
  5 24  1  0
  8 25  1  0
  8 26  1  0
  9 27  1  0
  9 28  1  0
 10 29  1  6
 11 30  1  6
 12 31  1  0
 12 32  1  0
 12 33  1  0
 13 34  1  0
 13 35  1  0
 13 36  1  0
 14 37  1  6
 15 38  1  0
 15 39  1  0
 15 40  1  0
 16 41  1  0
 16 42  1  0
 16 43  1  0
M  CHG  1  10   1
M  END
$$$$
