VX
     RDKit          3D

 43 42  0  0  0  0  0  0  0  0999 V2000
    3.8749    1.8728    2.2652 C   0  0  0  0  0  0  0  0  0  0  0  0
    3.9258    1.1373    0.9423 C   0  0  0  0  0  0  0  0  0  0  0  0
    2.9876    0.0719    0.9815 O   0  0  0  0  0  0  0  0  0  0  0  0
    2.6913   -0.7385   -0.3822 P   0  0  2  0  0  0  0  0  0  0  0  0
    3.5459   -2.2711   -0.6822 C   0  0  0  0  0  0  0  0  0  0  0  0
    1.7094   -0.2157   -1.3922 O   0  0  0  0  0  0  0  0  0  0  0  0
    0.9546   -1.9179    0.6959 S   0  0  0  0  0  0  0  0  0  0  0  0
   -0.0100   -0.6032    1.5069 C   0  0  0  0  0  0  0  0  0  0  0  0
   -0.8168    0.2699    0.5279 C   0  0  0  0  0  0  0  0  0  0  0  0
   -1.4902   -0.5509   -0.5957 N   0  0  1  0  0  0  0  0  0  0  0  0
   -2.9274   -1.0073   -0.2698 C   0  0  1  0  0  0  0  0  0  0  0  0
   -3.4303   -2.0166   -1.3006 C   0  0  0  0  0  0  0  0  0  0  0  0
   -3.0114   -1.6615    1.1104 C   0  0  0  0  0  0  0  0  0  0  0  0
   -1.2761    0.1612   -1.9572 C   0  0  1  0  0  0  0  0  0  0  0  0
   -1.0451   -0.8457   -3.0808 C   0  0  0  0  0  0  0  0  0  0  0  0
   -2.3738    1.1749   -2.2554 C   0  0  0  0  0  0  0  0  0  0  0  0
    4.5867    2.7029    2.2783 H   0  0  0  0  0  0  0  0  0  0  0  0
    2.8695    2.2660    2.4492 H   0  0  0  0  0  0  0  0  0  0  0  0
    4.1076    1.1945    3.0929 H   0  0  0  0  0  0  0  0  0  0  0  0
    3.6765    1.8194    0.1237 H   0  0  0  0  0  0  0  0  0  0  0  0
    4.9278    0.7319    0.7765 H   0  0  0  0  0  0  0  0  0  0  0  0
    3.7941   -2.7684    0.2596 H   0  0  0  0  0  0  0  0  0  0  0  0
    4.4731   -2.1015   -1.2361 H   0  0  0  0  0  0  0  0  0  0  0  0
    2.9210   -2.9476   -1.2724 H   0  0  0  0  0  0  0  0  0  0  0  0
   -0.6654   -1.0843    2.2355 H   0  0  0  0  0  0  0  0  0  0  0  0
    0.6694    0.0321    2.0848 H   0  0  0  0  0  0  0  0  0  0  0  0
   -1.5971    0.8470    1.0354 H   0  0  0  0  0  0  0  0  0  0  0  0
   -0.1333    0.9930    0.0723 H   0  0  0  0  0  0  0  0  0  0  0  0
   -0.9133   -1.4057   -0.6520 H   0  0  0  0  0  0  0  0  0  0  0  0
   -3.5573   -0.1117   -0.2690 H   0  0  0  0  0  0  0  0  0  0  0  0
   -2.6973   -2.8095   -1.4822 H   0  0  0  0  0  0  0  0  0  0  0  0
   -4.3565   -2.4940   -0.9603 H   0  0  0  0  0  0  0  0  0  0  0  0
   -3.6805   -1.5364   -2.2484 H   0  0  0  0  0  0  0  0  0  0  0  0
   -2.8352   -0.9394    1.9121 H   0  0  0  0  0  0  0  0  0  0  0  0
   -2.3069   -2.4933    1.2084 H   0  0  0  0  0  0  0  0  0  0  0  0
   -4.0170   -2.0618    1.2858 H   0  0  0  0  0  0  0  0  0  0  0  0
   -0.3426    0.7219   -1.8702 H   0  0  0  0  0  0  0  0  0  0  0  0
   -1.9596   -1.3322   -3.4211 H   0  0  0  0  0  0  0  0  0  0  0  0
   -0.3298   -1.6200   -2.7852 H   0  0  0  0  0  0  0  0  0  0  0  0
   -0.6263   -0.3320   -3.9540 H   0  0  0  0  0  0  0  0  0  0  0  0
   -3.3344    0.7022   -2.4761 H   0  0  0  0  0  0  0  0  0  0  0  0
   -2.1032    1.7719   -3.1336 H   0  0  0  0  0  0  0  0  0  0  0  0
   -2.5118    1.8670   -1.4183 H   0  0  0  0  0  0  0  0  0  0  0  0
  1  2  1  0
  2  3  1  0
  4  3  1  1
  4  5  1  0
  4  6  2  0
  4  7  1  0
  7  8  1  0
  8  9  1  0
  9 10  1  0
 10 11  1  0
 11 12  1  0
 11 13  1  0
 10 14  1  0
 14 15  1  0
 14 16  1  0
  1 17  1  0
  1 18  1  0
  1 19  1  0
  2 20  1  0
  2 21  1  0
  5 22  1  0
  5 23  1  0
  5 24  1  0
  8 25  1  0
  8 26  1  0
  9 27  1  0
  9 28  1  0
 10 29  1  1
 11 30  1  6
 12 31  1  0
 12 32  1  0
 12 33  1  0
 13 34  1  0
 13 35  1  0
 13 36  1  0
 14 37  1  1
 15 38  1  0
 15 39  1  0
 15 40  1  0
 16 41  1  0
 16 42  1  0
 16 43  1  0
M  CHG  1  10   1
M  END
$$$$
