VX
     RDKit          3D

 43 42  0  0  0  0  0  0  0  0999 V2000
    3.9530    1.7921    2.3163 C   0  0  0  0  0  0  0  0  0  0  0  0
    3.8436    1.2001    0.9258 C   0  0  0  0  0  0  0  0  0  0  0  0
    2.9937    0.0645    0.9833 O   0  0  0  0  0  0  0  0  0  0  0  0
    2.6874   -0.7339   -0.3836 P   0  0  2  0  0  0  0  0  0  0  0  0
    3.5471   -2.2676   -0.6766 C   0  0  0  0  0  0  0  0  0  0  0  0
    1.7060   -0.2164   -1.3984 O   0  0  0  0  0  0  0  0  0  0  0  0
    0.9507   -1.9133    0.6945 S   0  0  0  0  0  0  0  0  0  0  0  0
   -0.1022   -2.4862   -0.6778 C   0  0  0  0  0  0  0  0  0  0  0  0
   -1.5482   -1.9964   -0.5210 C   0  0  0  0  0  0  0  0  0  0  0  0
   -1.6344   -0.5009   -0.1648 N   0  0  2  0  0  0  0  0  0  0  0  0
   -2.7660   -0.2293    0.8303 C   0  0  1  0  0  0  0  0  0  0  0  0
   -2.7135    1.1810    1.3978 C   0  0  0  0  0  0  0  0  0  0  0  0
   -4.1495   -0.5849    0.2930 C   0  0  0  0  0  0  0  0  0  0  0  0
   -1.3793    0.4033   -1.3787 C   0  0  2  0  0  0  0  0  0  0  0  0
   -0.6725    1.6948   -0.9720 C   0  0  0  0  0  0  0  0  0  0  0  0
   -2.6257    0.6692   -2.2077 C   0  0  0  0  0  0  0  0  0  0  0  0
    2.9634    2.0533    2.7040 H   0  0  0  0  0  0  0  0  0  0  0  0
    4.5756    2.6910    2.3103 H   0  0  0  0  0  0  0  0  0  0  0  0
    4.3846    1.0643    3.0119 H   0  0  0  0  0  0  0  0  0  0  0  0
    4.8333    0.9023    0.5663 H   0  0  0  0  0  0  0  0  0  0  0  0
    3.4199    1.9375    0.2381 H   0  0  0  0  0  0  0  0  0  0  0  0
    4.4646   -2.0931   -1.2414 H   0  0  0  0  0  0  0  0  0  0  0  0
    3.8086   -2.7557    0.2664 H   0  0  0  0  0  0  0  0  0  0  0  0
    2.9194   -2.9520   -1.2543 H   0  0  0  0  0  0  0  0  0  0  0  0
   -0.0879   -3.5796   -0.6895 H   0  0  0  0  0  0  0  0  0  0  0  0
    0.3141   -2.1559   -1.6325 H   0  0  0  0  0  0  0  0  0  0  0  0
   -2.0193   -2.5548    0.2955 H   0  0  0  0  0  0  0  0  0  0  0  0
   -2.1326   -2.1606   -1.4320 H   0  0  0  0  0  0  0  0  0  0  0  0
   -0.7885   -0.3727    0.4140 H   0  0  0  0  0  0  0  0  0  0  0  0
   -2.5537   -0.9072    1.6671 H   0  0  0  0  0  0  0  0  0  0  0  0
   -3.3798    1.2604    2.2650 H   0  0  0  0  0  0  0  0  0  0  0  0
   -1.7059    1.4372    1.7397 H   0  0  0  0  0  0  0  0  0  0  0  0
   -3.0493    1.9286    0.6751 H   0  0  0  0  0  0  0  0  0  0  0  0
   -4.8689   -0.6064    1.1199 H   0  0  0  0  0  0  0  0  0  0  0  0
   -4.1753   -1.5720   -0.1757 H   0  0  0  0  0  0  0  0  0  0  0  0
   -4.5283    0.1463   -0.4226 H   0  0  0  0  0  0  0  0  0  0  0  0
   -0.6812   -0.1539   -2.0111 H   0  0  0  0  0  0  0  0  0  0  0  0
   -0.2069    2.1551   -1.8517 H   0  0  0  0  0  0  0  0  0  0  0  0
   -1.3580    2.4392   -0.5631 H   0  0  0  0  0  0  0  0  0  0  0  0
    0.1198    1.5171   -0.2385 H   0  0  0  0  0  0  0  0  0  0  0  0
   -2.3449    1.1348   -3.1588 H   0  0  0  0  0  0  0  0  0  0  0  0
   -3.1627   -0.2540   -2.4452 H   0  0  0  0  0  0  0  0  0  0  0  0
   -3.3076    1.3648   -1.7104 H   0  0  0  0  0  0  0  0  0  0  0  0
  1  2  1  0
  2  3  1  0
  4  3  1  1
  4  5  1  0
  4  6  2  0
  4  7  1  0
  7  8  1  0
  8  9  1  0
  9 10  1  0
 10 11  1  0
 11 12  1  0
 11 13  1  0
 10 14  1  0
 14 15  1  0
 14 16  1  0
  1 17  1  0
  1 18  1  0
  1 19  1  0
  2 20  1  0
  2 21  1  0
  5 22  1  0
  5 23  1  0
  5 24  1  0
  8 25  1  0
  8 26  1  0
  9 27  1  0
  9 28  1  0
 10 29  1  1
 11 30  1  6
 12 31  1  0
 12 32  1  0
 12 33  1  0
 13 34  1  0
 13 35  1  0
 13 36  1  0
 14 37  1  1
 15 38  1  0
 15 39  1  0
 15 40  1  0
 16 41  1  0
 16 42  1  0
 16 43  1  0
M  CHG  1  10   1
M  END
$$$$
