VX
     RDKit          3D

 43 42  0  0  0  0  0  0  0  0999 V2000
    4.7703   -0.0631    2.5560 C   0  0  0  0  0  0  0  0  0  0  0  0
    3.4064   -0.5870    2.1570 C   0  0  0  0  0  0  0  0  0  0  0  0
    2.9804    0.0809    0.9798 O   0  0  0  0  0  0  0  0  0  0  0  0
    2.6959   -0.7431   -0.3799 P   0  0  2  0  0  0  0  0  0  0  0  0
    3.5466   -2.2781   -0.6888 C   0  0  0  0  0  0  0  0  0  0  0  0
    1.7113   -0.2131   -1.3862 O   0  0  0  0  0  0  0  0  0  0  0  0
    0.9592   -1.9225    0.6982 S   0  0  0  0  0  0  0  0  0  0  0  0
   -0.2655   -0.6582    1.1559 C   0  0  0  0  0  0  0  0  0  0  0  0
   -0.6646    0.2413   -0.0211 C   0  0  0  0  0  0  0  0  0  0  0  0
   -1.8606    1.1566    0.3029 N   0  0  1  0  0  0  0  0  0  0  0  0
   -1.8358    2.4046   -0.6098 C   0  0  2  0  0  0  0  0  0  0  0  0
   -2.6416    3.5354    0.0291 C   0  0  0  0  0  0  0  0  0  0  0  0
   -2.2947    2.0836   -2.0271 C   0  0  0  0  0  0  0  0  0  0  0  0
   -3.2459    0.5006    0.4430 C   0  0  1  0  0  0  0  0  0  0  0  0
   -3.3935   -0.7912   -0.3533 C   0  0  0  0  0  0  0  0  0  0  0  0
   -3.5700    0.3128    1.9240 C   0  0  0  0  0  0  0  0  0  0  0  0
    4.7381    1.0208    2.7081 H   0  0  0  0  0  0  0  0  0  0  0  0
    5.1161   -0.5386    3.4780 H   0  0  0  0  0  0  0  0  0  0  0  0
    5.5040   -0.2515    1.7656 H   0  0  0  0  0  0  0  0  0  0  0  0
    3.4385   -1.6707    2.0131 H   0  0  0  0  0  0  0  0  0  0  0  0
    2.6775   -0.3755    2.9452 H   0  0  0  0  0  0  0  0  0  0  0  0
    3.7240   -2.8389    0.2324 H   0  0  0  0  0  0  0  0  0  0  0  0
    4.5116   -2.0890   -1.1675 H   0  0  0  0  0  0  0  0  0  0  0  0
    2.9542   -2.9101   -1.3569 H   0  0  0  0  0  0  0  0  0  0  0  0
    0.1464   -0.0503    1.9680 H   0  0  0  0  0  0  0  0  0  0  0  0
   -1.1212   -1.2028    1.5544 H   0  0  0  0  0  0  0  0  0  0  0  0
    0.1637    0.9236   -0.2230 H   0  0  0  0  0  0  0  0  0  0  0  0
   -0.9050   -0.3156   -0.9306 H   0  0  0  0  0  0  0  0  0  0  0  0
   -1.6353    1.5453    1.2275 H   0  0  0  0  0  0  0  0  0  0  0  0
   -0.7910    2.7361   -0.6376 H   0  0  0  0  0  0  0  0  0  0  0  0
   -2.3201    3.7151    1.0604 H   0  0  0  0  0  0  0  0  0  0  0  0
   -3.7169    3.3363    0.0364 H   0  0  0  0  0  0  0  0  0  0  0  0
   -2.4902    4.4653   -0.5301 H   0  0  0  0  0  0  0  0  0  0  0  0
   -3.3500    1.7982   -2.0682 H   0  0  0  0  0  0  0  0  0  0  0  0
   -2.1744    2.9644   -2.6678 H   0  0  0  0  0  0  0  0  0  0  0  0
   -1.7025    1.2775   -2.4702 H   0  0  0  0  0  0  0  0  0  0  0  0
   -3.9771    1.2126    0.0510 H   0  0  0  0  0  0  0  0  0  0  0  0
   -3.1587   -0.6428   -1.4115 H   0  0  0  0  0  0  0  0  0  0  0  0
   -2.7652   -1.5981    0.0332 H   0  0  0  0  0  0  0  0  0  0  0  0
   -4.4298   -1.1441   -0.3009 H   0  0  0  0  0  0  0  0  0  0  0  0
   -2.9003   -0.3961    2.4154 H   0  0  0  0  0  0  0  0  0  0  0  0
   -3.5081    1.2652    2.4617 H   0  0  0  0  0  0  0  0  0  0  0  0
   -4.5915   -0.0646    2.0435 H   0  0  0  0  0  0  0  0  0  0  0  0
  1  2  1  0
  2  3  1  0
  4  3  1  1
  4  5  1  0
  4  6  2  0
  4  7  1  0
  7  8  1  0
  8  9  1  0
  9 10  1  0
 10 11  1  0
 11 12  1  0
 11 13  1  0
 10 14  1  0
 14 15  1  0
 14 16  1  0
  1 17  1  0
  1 18  1  0
  1 19  1  0
  2 20  1  0
  2 21  1  0
  5 22  1  0
  5 23  1  0
  5 24  1  0
  8 25  1  0
  8 26  1  0
  9 27  1  0
  9 28  1  0
 10 29  1  6
 11 30  1  6
 12 31  1  0
 12 32  1  0
 12 33  1  0
 13 34  1  0
 13 35  1  0
 13 36  1  0
 14 37  1  6
 15 38  1  0
 15 39  1  0
 15 40  1  0
 16 41  1  0
 16 42  1  0
 16 43  1  0
M  CHG  1  10   1
M  END
$$$$
