VX
     RDKit          3D

 43 42  0  0  0  0  0  0  0  0999 V2000
    4.9971    0.8706    1.9883 C   0  0  0  0  0  0  0  0  0  0  0  0
    3.9283    1.1392    0.9493 C   0  0  0  0  0  0  0  0  0  0  0  0
    2.9805    0.0813    0.9804 O   0  0  0  0  0  0  0  0  0  0  0  0
    2.6959   -0.7436   -0.3805 P   0  0  2  0  0  0  0  0  0  0  0  0
    3.5457   -2.2770   -0.6891 C   0  0  0  0  0  0  0  0  0  0  0  0
    1.7122   -0.2141   -1.3859 O   0  0  0  0  0  0  0  0  0  0  0  0
    0.9592   -1.9230    0.6976 S   0  0  0  0  0  0  0  0  0  0  0  0
   -0.5234   -0.9400    0.3474 C   0  0  0  0  0  0  0  0  0  0  0  0
   -0.3748    0.5159    0.8057 C   0  0  0  0  0  0  0  0  0  0  0  0
   -1.7134    1.2748    0.6383 N   0  0  2  0  0  0  0  0  0  0  0  0
   -1.6561    2.2972   -0.5234 C   0  0  1  0  0  0  0  0  0  0  0  0
   -1.4171    1.5601   -1.8436 C   0  0  0  0  0  0  0  0  0  0  0  0
   -2.9667    3.0789   -0.6363 C   0  0  0  0  0  0  0  0  0  0  0  0
   -2.2673    1.8213    1.9654 C   0  0  2  0  0  0  0  0  0  0  0  0
   -1.3513    2.8804    2.5701 C   0  0  0  0  0  0  0  0  0  0  0  0
   -2.5544    0.6699    2.9306 C   0  0  0  0  0  0  0  0  0  0  0  0
    5.7348    1.6773    2.0068 H   0  0  0  0  0  0  0  0  0  0  0  0
    5.5105   -0.0731    1.7785 H   0  0  0  0  0  0  0  0  0  0  0  0
    4.5522    0.7760    2.9841 H   0  0  0  0  0  0  0  0  0  0  0  0
    3.4024    2.0707    1.1790 H   0  0  0  0  0  0  0  0  0  0  0  0
    4.3771    1.2398   -0.0443 H   0  0  0  0  0  0  0  0  0  0  0  0
    3.7604   -2.7971    0.2488 H   0  0  0  0  0  0  0  0  0  0  0  0
    2.9320   -2.9348   -1.3112 H   0  0  0  0  0  0  0  0  0  0  0  0
    4.4916   -2.1069   -1.2102 H   0  0  0  0  0  0  0  0  0  0  0  0
   -1.3617   -1.4158    0.8671 H   0  0  0  0  0  0  0  0  0  0  0  0
   -0.7316   -0.9955   -0.7247 H   0  0  0  0  0  0  0  0  0  0  0  0
   -0.0898    0.5499    1.8598 H   0  0  0  0  0  0  0  0  0  0  0  0
    0.3870    1.0710    0.2527 H   0  0  0  0  0  0  0  0  0  0  0  0
   -2.4151    0.5860    0.3364 H   0  0  0  0  0  0  0  0  0  0  0  0
   -0.8259    2.9796   -0.3115 H   0  0  0  0  0  0  0  0  0  0  0  0
   -0.4351    1.0843   -1.8761 H   0  0  0  0  0  0  0  0  0  0  0  0
   -1.4514    2.2588   -2.6869 H   0  0  0  0  0  0  0  0  0  0  0  0
   -2.1776    0.7906   -2.0163 H   0  0  0  0  0  0  0  0  0  0  0  0
   -3.0972    3.7753    0.1974 H   0  0  0  0  0  0  0  0  0  0  0  0
   -3.8328    2.4095   -0.6732 H   0  0  0  0  0  0  0  0  0  0  0  0
   -2.9760    3.6879   -1.5471 H   0  0  0  0  0  0  0  0  0  0  0  0
   -3.2376    2.2691    1.7324 H   0  0  0  0  0  0  0  0  0  0  0  0
   -1.7978    3.2820    3.4863 H   0  0  0  0  0  0  0  0  0  0  0  0
   -0.3677    2.4843    2.8374 H   0  0  0  0  0  0  0  0  0  0  0  0
   -1.2026    3.7233    1.8886 H   0  0  0  0  0  0  0  0  0  0  0  0
   -3.1781   -0.0942    2.4560 H   0  0  0  0  0  0  0  0  0  0  0  0
   -3.0997    1.0424    3.8051 H   0  0  0  0  0  0  0  0  0  0  0  0
   -1.6445    0.1892    3.3015 H   0  0  0  0  0  0  0  0  0  0  0  0
  1  2  1  0
  2  3  1  0
  4  3  1  1
  4  5  1  0
  4  6  2  0
  4  7  1  0
  7  8  1  0
  8  9  1  0
  9 10  1  0
 10 11  1  0
 11 12  1  0
 11 13  1  0
 10 14  1  0
 14 15  1  0
 14 16  1  0
  1 17  1  0
  1 18  1  0
  1 19  1  0
  2 20  1  0
  2 21  1  0
  5 22  1  0
  5 23  1  0
  5 24  1  0
  8 25  1  0
  8 26  1  0
  9 27  1  0
  9 28  1  0
 10 29  1  6
 11 30  1  6
 12 31  1  0
 12 32  1  0
 12 33  1  0
 13 34  1  0
 13 35  1  0
 13 36  1  0
 14 37  1  1
 15 38  1  0
 15 39  1  0
 15 40  1  0
 16 41  1  0
 16 42  1  0
 16 43  1  0
M  CHG  1  10   1
M  END
$$$$
