VX
     RDKit          3D

 43 42  0  0  0  0  0  0  0  0999 V2000
    2.8666    2.4637    0.7829 C   0  0  0  0  0  0  0  0  0  0  0  0
    3.7769    1.2521    0.9132 C   0  0  0  0  0  0  0  0  0  0  0  0
    2.9970    0.0657    0.9899 O   0  0  0  0  0  0  0  0  0  0  0  0
    2.6854   -0.7328   -0.3856 P   0  0  2  0  0  0  0  0  0  0  0  0
    3.5484   -2.2694   -0.6764 C   0  0  0  0  0  0  0  0  0  0  0  0
    1.7035   -0.2169   -1.4030 O   0  0  0  0  0  0  0  0  0  0  0  0
    0.9487   -1.9123    0.6925 S   0  0  0  0  0  0  0  0  0  0  0  0
    0.1652   -0.6304    1.7080 C   0  0  0  0  0  0  0  0  0  0  0  0
   -1.2268   -1.0682    2.1816 C   0  0  0  0  0  0  0  0  0  0  0  0
   -2.3736   -0.1127    1.7946 N   0  0  1  0  0  0  0  0  0  0  0  0
   -2.2223    1.3375    2.3097 C   0  0  2  0  0  0  0  0  0  0  0  0
   -1.8153    1.3405    3.7894 C   0  0  0  0  0  0  0  0  0  0  0  0
   -3.5548    2.0869    2.1694 C   0  0  0  0  0  0  0  0  0  0  0  0
   -2.8841   -0.2339    0.3404 C   0  0  2  0  0  0  0  0  0  0  0  0
   -3.2248   -1.6833   -0.0014 C   0  0  0  0  0  0  0  0  0  0  0  0
   -1.9412    0.3817   -0.6866 C   0  0  0  0  0  0  0  0  0  0  0  0
    2.3035    2.4260   -0.1583 H   0  0  0  0  0  0  0  0  0  0  0  0
    3.4535    3.3900    0.7851 H   0  0  0  0  0  0  0  0  0  0  0  0
    2.1288    2.5089    1.5925 H   0  0  0  0  0  0  0  0  0  0  0  0
    4.4797    1.2038    0.0720 H   0  0  0  0  0  0  0  0  0  0  0  0
    4.3652    1.3217    1.8376 H   0  0  0  0  0  0  0  0  0  0  0  0
    3.7152   -2.7980    0.2662 H   0  0  0  0  0  0  0  0  0  0  0  0
    2.9631   -2.9192   -1.3324 H   0  0  0  0  0  0  0  0  0  0  0  0
    4.5244   -2.0982   -1.1490 H   0  0  0  0  0  0  0  0  0  0  0  0
    0.1369    0.3198    1.1637 H   0  0  0  0  0  0  0  0  0  0  0  0
    0.8154   -0.4774    2.5791 H   0  0  0  0  0  0  0  0  0  0  0  0
   -1.5146   -2.0690    1.8491 H   0  0  0  0  0  0  0  0  0  0  0  0
   -1.2403   -1.1265    3.2793 H   0  0  0  0  0  0  0  0  0  0  0  0
   -3.1628   -0.4836    2.3438 H   0  0  0  0  0  0  0  0  0  0  0  0
   -1.4419    1.8254    1.7107 H   0  0  0  0  0  0  0  0  0  0  0  0
   -0.7988    0.9554    3.9358 H   0  0  0  0  0  0  0  0  0  0  0  0
   -2.5111    0.7492    4.4021 H   0  0  0  0  0  0  0  0  0  0  0  0
   -1.8129    2.3623    4.1827 H   0  0  0  0  0  0  0  0  0  0  0  0
   -3.5123    3.0520    2.6897 H   0  0  0  0  0  0  0  0  0  0  0  0
   -3.8090    2.3052    1.1219 H   0  0  0  0  0  0  0  0  0  0  0  0
   -4.3782    1.5066    2.6126 H   0  0  0  0  0  0  0  0  0  0  0  0
   -3.8307    0.3155    0.3173 H   0  0  0  0  0  0  0  0  0  0  0  0
   -2.3275   -2.2835   -0.1895 H   0  0  0  0  0  0  0  0  0  0  0  0
   -3.8280   -1.7204   -0.9175 H   0  0  0  0  0  0  0  0  0  0  0  0
   -3.8022   -2.1625    0.7984 H   0  0  0  0  0  0  0  0  0  0  0  0
   -1.7206    1.4318   -0.4736 H   0  0  0  0  0  0  0  0  0  0  0  0
   -1.0036   -0.1649   -0.7556 H   0  0  0  0  0  0  0  0  0  0  0  0
   -2.4052    0.3457   -1.6750 H   0  0  0  0  0  0  0  0  0  0  0  0
  1  2  1  0
  2  3  1  0
  4  3  1  1
  4  5  1  0
  4  6  2  0
  4  7  1  0
  7  8  1  0
  8  9  1  0
  9 10  1  0
 10 11  1  0
 11 12  1  0
 11 13  1  0
 10 14  1  0
 14 15  1  0
 14 16  1  0
  1 17  1  0
  1 18  1  0
  1 19  1  0
  2 20  1  0
  2 21  1  0
  5 22  1  0
  5 23  1  0
  5 24  1  0
  8 25  1  0
  8 26  1  0
  9 27  1  0
  9 28  1  0
 10 29  1  6
 11 30  1  6
 12 31  1  0
 12 32  1  0
 12 33  1  0
 13 34  1  0
 13 35  1  0
 13 36  1  0
 14 37  1  6
 15 38  1  0
 15 39  1  0
 15 40  1  0
 16 41  1  0
 16 42  1  0
 16 43  1  0
M  CHG  1  10   1
M  END
$$$$
