VX
     RDKit          3D

 43 42  0  0  0  0  0  0  0  0999 V2000
    3.2573    0.2819    3.3352 C   0  0  0  0  0  0  0  0  0  0  0  0
    3.5428   -0.5580    2.1073 C   0  0  0  0  0  0  0  0  0  0  0  0
    2.9752    0.0871    0.9783 O   0  0  0  0  0  0  0  0  0  0  0  0
    2.6992   -0.7469   -0.3788 P   0  0  2  0  0  0  0  0  0  0  0  0
    3.5458   -2.2812   -0.6935 C   0  0  0  0  0  0  0  0  0  0  0  0
    1.7140   -0.2124   -1.3812 O   0  0  0  0  0  0  0  0  0  0  0  0
    0.9625   -1.9264    0.6993 S   0  0  0  0  0  0  0  0  0  0  0  0
   -0.5245   -0.9803    0.2571 C   0  0  0  0  0  0  0  0  0  0  0  0
   -0.4453    0.4780    0.7300 C   0  0  0  0  0  0  0  0  0  0  0  0
   -1.7692    1.2182    0.4264 N   0  0  2  0  0  0  0  0  0  0  0  0
   -1.5823    2.4278   -0.5113 C   0  0  2  0  0  0  0  0  0  0  0  0
   -1.0409    1.9722   -1.8658 C   0  0  0  0  0  0  0  0  0  0  0  0
   -0.7275    3.5173    0.1275 C   0  0  0  0  0  0  0  0  0  0  0  0
   -2.5857    1.5023    1.7070 C   0  0  1  0  0  0  0  0  0  0  0  0
   -3.8727    2.2639    1.3856 C   0  0  0  0  0  0  0  0  0  0  0  0
   -2.9580    0.1793    2.3837 C   0  0  0  0  0  0  0  0  0  0  0  0
    3.6946   -0.1712    4.2292 H   0  0  0  0  0  0  0  0  0  0  0  0
    3.6628    1.2919    3.2158 H   0  0  0  0  0  0  0  0  0  0  0  0
    2.1777    0.3885    3.4851 H   0  0  0  0  0  0  0  0  0  0  0  0
    3.1157   -1.5577    2.2302 H   0  0  0  0  0  0  0  0  0  0  0  0
    4.6229   -0.6498    1.9573 H   0  0  0  0  0  0  0  0  0  0  0  0
    2.9567   -2.9070   -1.3701 H   0  0  0  0  0  0  0  0  0  0  0  0
    4.5164   -2.0947   -1.1619 H   0  0  0  0  0  0  0  0  0  0  0  0
    3.7105   -2.8464    0.2279 H   0  0  0  0  0  0  0  0  0  0  0  0
   -1.3818   -1.4891    0.7067 H   0  0  0  0  0  0  0  0  0  0  0  0
   -0.6571   -1.0223   -0.8286 H   0  0  0  0  0  0  0  0  0  0  0  0
    0.3642    1.0135    0.2354 H   0  0  0  0  0  0  0  0  0  0  0  0
   -0.2627    0.5528    1.8072 H   0  0  0  0  0  0  0  0  0  0  0  0
   -2.3531    0.5731   -0.1228 H   0  0  0  0  0  0  0  0  0  0  0  0
   -2.5852    2.8185   -0.7053 H   0  0  0  0  0  0  0  0  0  0  0  0
    0.0098    1.6783   -1.8198 H   0  0  0  0  0  0  0  0  0  0  0  0
   -1.6191    1.1312   -2.2623 H   0  0  0  0  0  0  0  0  0  0  0  0
   -1.1104    2.7913   -2.5902 H   0  0  0  0  0  0  0  0  0  0  0  0
   -0.6695    4.3853   -0.5386 H   0  0  0  0  0  0  0  0  0  0  0  0
    0.2983    3.1894    0.3188 H   0  0  0  0  0  0  0  0  0  0  0  0
   -1.1540    3.8648    1.0730 H   0  0  0  0  0  0  0  0  0  0  0  0
   -1.9487    2.0981    2.3693 H   0  0  0  0  0  0  0  0  0  0  0  0
   -4.5163    2.3251    2.2707 H   0  0  0  0  0  0  0  0  0  0  0  0
   -4.4442    1.7729    0.5908 H   0  0  0  0  0  0  0  0  0  0  0  0
   -3.6687    3.2960    1.0853 H   0  0  0  0  0  0  0  0  0  0  0  0
   -2.0793   -0.3591    2.7495 H   0  0  0  0  0  0  0  0  0  0  0  0
   -3.5972    0.3601    3.2555 H   0  0  0  0  0  0  0  0  0  0  0  0
   -3.5050   -0.4791    1.7002 H   0  0  0  0  0  0  0  0  0  0  0  0
  1  2  1  0
  2  3  1  0
  4  3  1  1
  4  5  1  0
  4  6  2  0
  4  7  1  0
  7  8  1  0
  8  9  1  0
  9 10  1  0
 10 11  1  0
 11 12  1  0
 11 13  1  0
 10 14  1  0
 14 15  1  0
 14 16  1  0
  1 17  1  0
  1 18  1  0
  1 19  1  0
  2 20  1  0
  2 21  1  0
  5 22  1  0
  5 23  1  0
  5 24  1  0
  8 25  1  0
  8 26  1  0
  9 27  1  0
  9 28  1  0
 10 29  1  6
 11 30  1  6
 12 31  1  0
 12 32  1  0
 12 33  1  0
 13 34  1  0
 13 35  1  0
 13 36  1  0
 14 37  1  1
 15 38  1  0
 15 39  1  0
 15 40  1  0
 16 41  1  0
 16 42  1  0
 16 43  1  0
M  CHG  1  10   1
M  END
$$$$
