VX
     RDKit          3D

 43 42  0  0  0  0  0  0  0  0999 V2000
    3.9542    1.8118    2.2968 C   0  0  0  0  0  0  0  0  0  0  0  0
    3.9001    1.1610    0.9301 C   0  0  0  0  0  0  0  0  0  0  0  0
    2.9845    0.0763    0.9814 O   0  0  0  0  0  0  0  0  0  0  0  0
    2.6932   -0.7407   -0.3818 P   0  0  2  0  0  0  0  0  0  0  0  0
    3.5457   -2.2736   -0.6855 C   0  0  0  0  0  0  0  0  0  0  0  0
    1.7109   -0.2153   -1.3893 O   0  0  0  0  0  0  0  0  0  0  0  0
    0.9564   -1.9202    0.6963 S   0  0  0  0  0  0  0  0  0  0  0  0
   -0.4346   -1.8536   -0.4800 C   0  0  0  0  0  0  0  0  0  0  0  0
   -1.0825   -0.4614   -0.5849 C   0  0  0  0  0  0  0  0  0  0  0  0
   -1.1818    0.2313    0.7999 N   0  0  1  0  0  0  0  0  0  0  0  0
   -0.4704    1.5983    0.7386 C   0  0  1  0  0  0  0  0  0  0  0  0
   -1.3764    2.6829    0.1719 C   0  0  0  0  0  0  0  0  0  0  0  0
    0.1714    1.9655    2.0733 C   0  0  0  0  0  0  0  0  0  0  0  0
   -2.5992    0.1675    1.3961 C   0  0  2  0  0  0  0  0  0  0  0  0
   -2.6469    0.7479    2.8073 C   0  0  0  0  0  0  0  0  0  0  0  0
   -3.0779   -1.2874    1.4693 C   0  0  0  0  0  0  0  0  0  0  0  0
    4.2741    1.0900    3.0556 H   0  0  0  0  0  0  0  0  0  0  0  0
    4.6482    2.6570    2.2989 H   0  0  0  0  0  0  0  0  0  0  0  0
    2.9622    2.1678    2.5943 H   0  0  0  0  0  0  0  0  0  0  0  0
    4.8913    0.7925    0.6512 H   0  0  0  0  0  0  0  0  0  0  0  0
    3.5648    1.8859    0.1820 H   0  0  0  0  0  0  0  0  0  0  0  0
    4.4771   -2.1044   -1.2322 H   0  0  0  0  0  0  0  0  0  0  0  0
    2.9225   -2.9443   -1.2838 H   0  0  0  0  0  0  0  0  0  0  0  0
    3.7861   -2.7775    0.2549 H   0  0  0  0  0  0  0  0  0  0  0  0
   -0.0942   -2.1845   -1.4665 H   0  0  0  0  0  0  0  0  0  0  0  0
   -1.1726   -2.5854   -0.1408 H   0  0  0  0  0  0  0  0  0  0  0  0
   -0.5101    0.1813   -1.2578 H   0  0  0  0  0  0  0  0  0  0  0  0
   -2.0891   -0.5155   -1.0132 H   0  0  0  0  0  0  0  0  0  0  0  0
   -0.5852   -0.3464    1.4148 H   0  0  0  0  0  0  0  0  0  0  0  0
    0.3713    1.4645    0.0509 H   0  0  0  0  0  0  0  0  0  0  0  0
   -0.8020    3.5999   -0.0003 H   0  0  0  0  0  0  0  0  0  0  0  0
   -2.1960    2.9390    0.8487 H   0  0  0  0  0  0  0  0  0  0  0  0
   -1.8079    2.3806   -0.7876 H   0  0  0  0  0  0  0  0  0  0  0  0
   -0.5380    2.3548    2.8042 H   0  0  0  0  0  0  0  0  0  0  0  0
    0.9128    2.7577    1.9163 H   0  0  0  0  0  0  0  0  0  0  0  0
    0.6966    1.1131    2.5159 H   0  0  0  0  0  0  0  0  0  0  0  0
   -3.2554    0.7354    0.7275 H   0  0  0  0  0  0  0  0  0  0  0  0
   -2.5735    1.8369    2.7995 H   0  0  0  0  0  0  0  0  0  0  0  0
   -3.6058    0.5213    3.2881 H   0  0  0  0  0  0  0  0  0  0  0  0
   -1.8553    0.3363    3.4416 H   0  0  0  0  0  0  0  0  0  0  0  0
   -2.3692   -1.9156    2.0196 H   0  0  0  0  0  0  0  0  0  0  0  0
   -3.2327   -1.7206    0.4774 H   0  0  0  0  0  0  0  0  0  0  0  0
   -4.0446   -1.3502    1.9816 H   0  0  0  0  0  0  0  0  0  0  0  0
  1  2  1  0
  2  3  1  0
  4  3  1  1
  4  5  1  0
  4  6  2  0
  4  7  1  0
  7  8  1  0
  8  9  1  0
  9 10  1  0
 10 11  1  0
 11 12  1  0
 11 13  1  0
 10 14  1  0
 14 15  1  0
 14 16  1  0
  1 17  1  0
  1 18  1  0
  1 19  1  0
  2 20  1  0
  2 21  1  0
  5 22  1  0
  5 23  1  0
  5 24  1  0
  8 25  1  0
  8 26  1  0
  9 27  1  0
  9 28  1  0
 10 29  1  6
 11 30  1  1
 12 31  1  0
 12 32  1  0
 12 33  1  0
 13 34  1  0
 13 35  1  0
 13 36  1  0
 14 37  1  1
 15 38  1  0
 15 39  1  0
 15 40  1  0
 16 41  1  0
 16 42  1  0
 16 43  1  0
M  CHG  1  10   1
M  END
$$$$
