VX
     RDKit          3D

 43 42  0  0  0  0  0  0  0  0999 V2000
    3.9714    1.7963    2.3046 C   0  0  0  0  0  0  0  0  0  0  0  0
    3.8993    1.1623    0.9306 C   0  0  0  0  0  0  0  0  0  0  0  0
    2.9824    0.0793    0.9813 O   0  0  0  0  0  0  0  0  0  0  0  0
    2.6948   -0.7425   -0.3810 P   0  0  2  0  0  0  0  0  0  0  0  0
    3.5459   -2.2758   -0.6875 C   0  0  0  0  0  0  0  0  0  0  0  0
    1.7111   -0.2144   -1.3879 O   0  0  0  0  0  0  0  0  0  0  0  0
    0.9581   -1.9219    0.6971 S   0  0  0  0  0  0  0  0  0  0  0  0
   -0.5399   -1.0143    0.2101 C   0  0  0  0  0  0  0  0  0  0  0  0
   -0.5009    0.4349    0.7106 C   0  0  0  0  0  0  0  0  0  0  0  0
   -1.6920    1.3055    0.2666 N   0  0  1  0  0  0  0  0  0  0  0  0
   -1.5198    2.0032   -1.0986 C   0  0  2  0  0  0  0  0  0  0  0  0
   -1.5290    1.0327   -2.2683 C   0  0  0  0  0  0  0  0  0  0  0  0
   -0.2859    2.9067   -1.1015 C   0  0  0  0  0  0  0  0  0  0  0  0
   -3.0759    0.6710    0.5270 C   0  0  1  0  0  0  0  0  0  0  0  0
   -3.2185    0.3454    2.0178 C   0  0  0  0  0  0  0  0  0  0  0  0
   -4.2075    1.6213    0.1285 C   0  0  0  0  0  0  0  0  0  0  0  0
    4.6647    2.6419    2.3084 H   0  0  0  0  0  0  0  0  0  0  0  0
    2.9833    2.1468    2.6206 H   0  0  0  0  0  0  0  0  0  0  0  0
    4.3027    1.0642    3.0489 H   0  0  0  0  0  0  0  0  0  0  0  0
    4.8865    0.7963    0.6354 H   0  0  0  0  0  0  0  0  0  0  0  0
    3.5553    1.8970    0.1958 H   0  0  0  0  0  0  0  0  0  0  0  0
    2.9203   -2.9460   -1.2842 H   0  0  0  0  0  0  0  0  0  0  0  0
    4.4757   -2.1076   -1.2372 H   0  0  0  0  0  0  0  0  0  0  0  0
    3.7887   -2.7798    0.2521 H   0  0  0  0  0  0  0  0  0  0  0  0
   -0.6315   -1.0792   -0.8736 H   0  0  0  0  0  0  0  0  0  0  0  0
   -1.3878   -1.5544    0.6391 H   0  0  0  0  0  0  0  0  0  0  0  0
    0.4067    0.9592    0.4124 H   0  0  0  0  0  0  0  0  0  0  0  0
   -0.5130    0.4574    1.8068 H   0  0  0  0  0  0  0  0  0  0  0  0
   -1.6610    2.0962    0.9243 H   0  0  0  0  0  0  0  0  0  0  0  0
   -2.3748    2.6784   -1.1929 H   0  0  0  0  0  0  0  0  0  0  0  0
   -0.5930    0.4754   -2.3461 H   0  0  0  0  0  0  0  0  0  0  0  0
   -1.6393    1.5867   -3.2076 H   0  0  0  0  0  0  0  0  0  0  0  0
   -2.3594    0.3238   -2.2123 H   0  0  0  0  0  0  0  0  0  0  0  0
   -0.3185    3.5778   -1.9676 H   0  0  0  0  0  0  0  0  0  0  0  0
    0.6479    2.3431   -1.1758 H   0  0  0  0  0  0  0  0  0  0  0  0
   -0.2463    3.5304   -0.2026 H   0  0  0  0  0  0  0  0  0  0  0  0
   -3.1363   -0.2415   -0.0737 H   0  0  0  0  0  0  0  0  0  0  0  0
   -2.5163   -0.4263    2.3436 H   0  0  0  0  0  0  0  0  0  0  0  0
   -4.2227   -0.0368    2.2333 H   0  0  0  0  0  0  0  0  0  0  0  0
   -3.0595    1.2349    2.6374 H   0  0  0  0  0  0  0  0  0  0  0  0
   -5.1760    1.2275    0.4566 H   0  0  0  0  0  0  0  0  0  0  0  0
   -4.0802    2.6119    0.5781 H   0  0  0  0  0  0  0  0  0  0  0  0
   -4.2768    1.7334   -0.9578 H   0  0  0  0  0  0  0  0  0  0  0  0
  1  2  1  0
  2  3  1  0
  4  3  1  1
  4  5  1  0
  4  6  2  0
  4  7  1  0
  7  8  1  0
  8  9  1  0
  9 10  1  0
 10 11  1  0
 11 12  1  0
 11 13  1  0
 10 14  1  0
 14 15  1  0
 14 16  1  0
  1 17  1  0
  1 18  1  0
  1 19  1  0
  2 20  1  0
  2 21  1  0
  5 22  1  0
  5 23  1  0
  5 24  1  0
  8 25  1  0
  8 26  1  0
  9 27  1  0
  9 28  1  0
 10 29  1  6
 11 30  1  6
 12 31  1  0
 12 32  1  0
 12 33  1  0
 13 34  1  0
 13 35  1  0
 13 36  1  0
 14 37  1  6
 15 38  1  0
 15 39  1  0
 15 40  1  0
 16 41  1  0
 16 42  1  0
 16 43  1  0
M  CHG  1  10   1
M  END
$$$$
