VX
     RDKit          3D

 43 42  0  0  0  0  0  0  0  0999 V2000
    2.9077    2.4578    0.9305 C   0  0  0  0  0  0  0  0  0  0  0  0
    3.8006    1.2352    0.9136 C   0  0  0  0  0  0  0  0  0  0  0  0
    2.9948    0.0664    0.9871 O   0  0  0  0  0  0  0  0  0  0  0  0
    2.6859   -0.7335   -0.3856 P   0  0  2  0  0  0  0  0  0  0  0  0
    3.5469   -2.2683   -0.6776 C   0  0  0  0  0  0  0  0  0  0  0  0
    1.7067   -0.2179   -1.3990 O   0  0  0  0  0  0  0  0  0  0  0  0
    0.9491   -1.9129    0.6925 S   0  0  0  0  0  0  0  0  0  0  0  0
    0.2293   -0.6929    1.8328 C   0  0  0  0  0  0  0  0  0  0  0  0
   -1.2902   -0.8521    1.9680 C   0  0  0  0  0  0  0  0  0  0  0  0
   -2.1158    0.2005    1.2018 N   0  0  2  0  0  0  0  0  0  0  0  0
   -2.0949   -0.0809   -0.3189 C   0  0  2  0  0  0  0  0  0  0  0  0
   -1.1946    0.8708   -1.0967 C   0  0  0  0  0  0  0  0  0  0  0  0
   -3.5256   -0.1030   -0.8601 C   0  0  0  0  0  0  0  0  0  0  0  0
   -1.9329    1.6609    1.6653 C   0  0  2  0  0  0  0  0  0  0  0  0
   -1.8547    1.7465    3.1927 C   0  0  0  0  0  0  0  0  0  0  0  0
   -3.1146    2.5130    1.2060 C   0  0  0  0  0  0  0  0  0  0  0  0
    3.4969    3.3730    0.8260 H   0  0  0  0  0  0  0  0  0  0  0  0
    2.3387    2.5161    1.8631 H   0  0  0  0  0  0  0  0  0  0  0  0
    2.1730    2.4184    0.1201 H   0  0  0  0  0  0  0  0  0  0  0  0
    4.4241    1.2249    0.0125 H   0  0  0  0  0  0  0  0  0  0  0  0
    4.4646    1.2434    1.7827 H   0  0  0  0  0  0  0  0  0  0  0  0
    4.4851   -2.0927   -1.2026 H   0  0  0  0  0  0  0  0  0  0  0  0
    2.9368   -2.9432   -1.2859 H   0  0  0  0  0  0  0  0  0  0  0  0
    3.7714   -2.7665    0.2679 H   0  0  0  0  0  0  0  0  0  0  0  0
    0.6922   -0.8780    2.8066 H   0  0  0  0  0  0  0  0  0  0  0  0
    0.5142    0.3158    1.5271 H   0  0  0  0  0  0  0  0  0  0  0  0
   -1.5879   -0.7651    3.0153 H   0  0  0  0  0  0  0  0  0  0  0  0
   -1.6562   -1.8346    1.6433 H   0  0  0  0  0  0  0  0  0  0  0  0
   -3.0752   -0.0308    1.4909 H   0  0  0  0  0  0  0  0  0  0  0  0
   -1.7060   -1.0955   -0.4384 H   0  0  0  0  0  0  0  0  0  0  0  0
   -0.2155    0.9738   -0.6283 H   0  0  0  0  0  0  0  0  0  0  0  0
   -1.6232    1.8693   -1.2057 H   0  0  0  0  0  0  0  0  0  0  0  0
   -1.0382    0.4873   -2.1106 H   0  0  0  0  0  0  0  0  0  0  0  0
   -3.9965    0.8786   -0.8424 H   0  0  0  0  0  0  0  0  0  0  0  0
   -3.5304   -0.4441   -1.8983 H   0  0  0  0  0  0  0  0  0  0  0  0
   -4.1576   -0.7908   -0.2868 H   0  0  0  0  0  0  0  0  0  0  0  0
   -0.9960    2.0332    1.2402 H   0  0  0  0  0  0  0  0  0  0  0  0
   -1.8385    2.7915    3.5223 H   0  0  0  0  0  0  0  0  0  0  0  0
   -2.7146    1.2630    3.6662 H   0  0  0  0  0  0  0  0  0  0  0  0
   -0.9385    1.2892    3.5799 H   0  0  0  0  0  0  0  0  0  0  0  0
   -3.1432    2.6444    0.1249 H   0  0  0  0  0  0  0  0  0  0  0  0
   -4.0693    2.0818    1.5246 H   0  0  0  0  0  0  0  0  0  0  0  0
   -3.0492    3.5211    1.6329 H   0  0  0  0  0  0  0  0  0  0  0  0
  1  2  1  0
  2  3  1  0
  4  3  1  1
  4  5  1  0
  4  6  2  0
  4  7  1  0
  7  8  1  0
  8  9  1  0
  9 10  1  0
 10 11  1  0
 11 12  1  0
 11 13  1  0
 10 14  1  0
 14 15  1  0
 14 16  1  0
  1 17  1  0
  1 18  1  0
  1 19  1  0
  2 20  1  0
  2 21  1  0
  5 22  1  0
  5 23  1  0
  5 24  1  0
  8 25  1  0
  8 26  1  0
  9 27  1  0
  9 28  1  0
 10 29  1  1
 11 30  1  1
 12 31  1  0
 12 32  1  0
 12 33  1  0
 13 34  1  0
 13 35  1  0
 13 36  1  0
 14 37  1  1
 15 38  1  0
 15 39  1  0
 15 40  1  0
 16 41  1  0
 16 42  1  0
 16 43  1  0
M  CHG  1  10   1
M  END
$$$$
