VX
     RDKit          3D

 43 42  0  0  0  0  0  0  0  0999 V2000
    3.0630    2.4586    1.0112 C   0  0  0  0  0  0  0  0  0  0  0  0
    3.8740    1.1807    0.9395 C   0  0  0  0  0  0  0  0  0  0  0  0
    2.9926    0.0674    0.9847 O   0  0  0  0  0  0  0  0  0  0  0  0
    2.6872   -0.7348   -0.3848 P   0  0  2  0  0  0  0  0  0  0  0  0
    3.5461   -2.2681   -0.6788 C   0  0  0  0  0  0  0  0  0  0  0  0
    1.7083   -0.2178   -1.3963 O   0  0  0  0  0  0  0  0  0  0  0  0
    0.9505   -1.9142    0.6933 S   0  0  0  0  0  0  0  0  0  0  0  0
   -0.2427   -0.5930    1.0427 C   0  0  0  0  0  0  0  0  0  0  0  0
   -1.6730   -1.1272    0.9503 C   0  0  0  0  0  0  0  0  0  0  0  0
   -2.7005   -0.1257    1.4998 N   0  0  2  0  0  0  0  0  0  0  0  0
   -4.0253   -0.7647    1.9579 C   0  0  1  0  0  0  0  0  0  0  0  0
   -4.7342   -1.4955    0.8277 C   0  0  0  0  0  0  0  0  0  0  0  0
   -3.7961   -1.6617    3.1753 C   0  0  0  0  0  0  0  0  0  0  0  0
   -2.9342    1.1592    0.6809 C   0  0  1  0  0  0  0  0  0  0  0  0
   -2.0191    2.2700    1.1960 C   0  0  0  0  0  0  0  0  0  0  0  0
   -2.8015    0.9597   -0.8214 C   0  0  0  0  0  0  0  0  0  0  0  0
    2.4560    2.4763    1.9220 H   0  0  0  0  0  0  0  0  0  0  0  0
    2.3676    2.5295    0.1650 H   0  0  0  0  0  0  0  0  0  0  0  0
    3.7181    3.3348    1.0077 H   0  0  0  0  0  0  0  0  0  0  0  0
    4.4869    1.1626    0.0321 H   0  0  0  0  0  0  0  0  0  0  0  0
    4.5447    1.1117    1.8013 H   0  0  0  0  0  0  0  0  0  0  0  0
    2.9372   -2.9299   -1.3033 H   0  0  0  0  0  0  0  0  0  0  0  0
    3.7583   -2.7887    0.2592 H   0  0  0  0  0  0  0  0  0  0  0  0
    4.4979   -2.0992   -1.1942 H   0  0  0  0  0  0  0  0  0  0  0  0
   -0.0353   -0.1842    2.0361 H   0  0  0  0  0  0  0  0  0  0  0  0
   -0.0904    0.2011    0.3149 H   0  0  0  0  0  0  0  0  0  0  0  0
   -1.9582   -1.3797   -0.0787 H   0  0  0  0  0  0  0  0  0  0  0  0
   -1.7611   -2.0316    1.5572 H   0  0  0  0  0  0  0  0  0  0  0  0
   -2.2950    0.1991    2.3895 H   0  0  0  0  0  0  0  0  0  0  0  0
   -4.6546    0.0683    2.2980 H   0  0  0  0  0  0  0  0  0  0  0  0
   -5.0713   -0.7930    0.0592 H   0  0  0  0  0  0  0  0  0  0  0  0
   -4.1018   -2.2551    0.3593 H   0  0  0  0  0  0  0  0  0  0  0  0
   -5.6269   -2.0062    1.2079 H   0  0  0  0  0  0  0  0  0  0  0  0
   -3.2077   -1.1489    3.9428 H   0  0  0  0  0  0  0  0  0  0  0  0
   -3.2957   -2.6024    2.9238 H   0  0  0  0  0  0  0  0  0  0  0  0
   -4.7605   -1.9226    3.6235 H   0  0  0  0  0  0  0  0  0  0  0  0
   -3.9627    1.4725    0.8880 H   0  0  0  0  0  0  0  0  0  0  0  0
   -2.3179    3.2322    0.7672 H   0  0  0  0  0  0  0  0  0  0  0  0
   -2.0816    2.3641    2.2838 H   0  0  0  0  0  0  0  0  0  0  0  0
   -0.9727    2.1114    0.9263 H   0  0  0  0  0  0  0  0  0  0  0  0
   -1.7713    0.7597   -1.1284 H   0  0  0  0  0  0  0  0  0  0  0  0
   -3.1131    1.8697   -1.3444 H   0  0  0  0  0  0  0  0  0  0  0  0
   -3.4339    0.1470   -1.1858 H   0  0  0  0  0  0  0  0  0  0  0  0
  1  2  1  0
  2  3  1  0
  4  3  1  1
  4  5  1  0
  4  6  2  0
  4  7  1  0
  7  8  1  0
  8  9  1  0
  9 10  1  0
 10 11  1  0
 11 12  1  0
 11 13  1  0
 10 14  1  0
 14 15  1  0
 14 16  1  0
  1 17  1  0
  1 18  1  0
  1 19  1  0
  2 20  1  0
  2 21  1  0
  5 22  1  0
  5 23  1  0
  5 24  1  0
  8 25  1  0
  8 26  1  0
  9 27  1  0
  9 28  1  0
 10 29  1  1
 11 30  1  6
 12 31  1  0
 12 32  1  0
 12 33  1  0
 13 34  1  0
 13 35  1  0
 13 36  1  0
 14 37  1  6
 15 38  1  0
 15 39  1  0
 15 40  1  0
 16 41  1  0
 16 42  1  0
 16 43  1  0
M  CHG  1  10   1
M  END
$$$$
