VX
     RDKit          3D

 43 42  0  0  0  0  0  0  0  0999 V2000
    3.1960    0.2382    3.3446 C   0  0  0  0  0  0  0  0  0  0  0  0
    3.5416   -0.5640    2.1073 C   0  0  0  0  0  0  0  0  0  0  0  0
    2.9772    0.0847    0.9789 O   0  0  0  0  0  0  0  0  0  0  0  0
    2.6980   -0.7455   -0.3792 P   0  0  2  0  0  0  0  0  0  0  0  0
    3.5460   -2.2798   -0.6917 C   0  0  0  0  0  0  0  0  0  0  0  0
    1.7130   -0.2127   -1.3831 O   0  0  0  0  0  0  0  0  0  0  0  0
    0.9612   -1.9249    0.6989 S   0  0  0  0  0  0  0  0  0  0  0  0
   -0.1921   -0.6240    1.2337 C   0  0  0  0  0  0  0  0  0  0  0  0
   -0.5680    0.3434    0.1021 C   0  0  0  0  0  0  0  0  0  0  0  0
   -1.8333    1.1531    0.4258 N   0  0  1  0  0  0  0  0  0  0  0  0
   -1.7199    2.2218    1.5319 C   0  0  1  0  0  0  0  0  0  0  0  0
   -2.1579    1.6168    2.8650 C   0  0  0  0  0  0  0  0  0  0  0  0
   -0.3397    2.8637    1.6272 C   0  0  0  0  0  0  0  0  0  0  0  0
   -2.5575    1.6928   -0.8275 C   0  0  1  0  0  0  0  0  0  0  0  0
   -1.6464    2.5522   -1.6940 C   0  0  0  0  0  0  0  0  0  0  0  0
   -3.1808    0.5389   -1.6145 C   0  0  0  0  0  0  0  0  0  0  0  0
    2.1098    0.3105    3.4651 H   0  0  0  0  0  0  0  0  0  0  0  0
    3.6208   -0.2231    4.2405 H   0  0  0  0  0  0  0  0  0  0  0  0
    3.5755    1.2618    3.2600 H   0  0  0  0  0  0  0  0  0  0  0  0
    3.1504   -1.5813    2.2003 H   0  0  0  0  0  0  0  0  0  0  0  0
    4.6271   -0.6127    1.9800 H   0  0  0  0  0  0  0  0  0  0  0  0
    3.7162   -2.8401    0.2316 H   0  0  0  0  0  0  0  0  0  0  0  0
    2.9552   -2.9097   -1.3630 H   0  0  0  0  0  0  0  0  0  0  0  0
    4.5140   -2.0923   -1.1647 H   0  0  0  0  0  0  0  0  0  0  0  0
    0.2793   -0.0894    2.0615 H   0  0  0  0  0  0  0  0  0  0  0  0
   -1.0842   -1.1260    1.6214 H   0  0  0  0  0  0  0  0  0  0  0  0
   -0.7891   -0.2289   -0.8013 H   0  0  0  0  0  0  0  0  0  0  0  0
    0.2251    1.0611   -0.1139 H   0  0  0  0  0  0  0  0  0  0  0  0
   -2.5016    0.4613    0.7887 H   0  0  0  0  0  0  0  0  0  0  0  0
   -2.4438    3.0060    1.2829 H   0  0  0  0  0  0  0  0  0  0  0  0
   -1.4758    0.8374    3.2133 H   0  0  0  0  0  0  0  0  0  0  0  0
   -2.1919    2.3913    3.6392 H   0  0  0  0  0  0  0  0  0  0  0  0
   -3.1613    1.1839    2.7905 H   0  0  0  0  0  0  0  0  0  0  0  0
   -0.3677    3.6997    2.3355 H   0  0  0  0  0  0  0  0  0  0  0  0
   -0.0054    3.2674    0.6684 H   0  0  0  0  0  0  0  0  0  0  0  0
    0.4212    2.1683    1.9920 H   0  0  0  0  0  0  0  0  0  0  0  0
   -3.3878    2.3036   -0.4535 H   0  0  0  0  0  0  0  0  0  0  0  0
   -2.1991    2.9289   -2.5619 H   0  0  0  0  0  0  0  0  0  0  0  0
   -0.7871    1.9926   -2.0757 H   0  0  0  0  0  0  0  0  0  0  0  0
   -1.2790    3.4246   -1.1482 H   0  0  0  0  0  0  0  0  0  0  0  0
   -3.7691   -0.1156   -0.9629 H   0  0  0  0  0  0  0  0  0  0  0  0
   -2.4335   -0.0695   -2.1318 H   0  0  0  0  0  0  0  0  0  0  0  0
   -3.8571    0.9330   -2.3815 H   0  0  0  0  0  0  0  0  0  0  0  0
  1  2  1  0
  2  3  1  0
  4  3  1  1
  4  5  1  0
  4  6  2  0
  4  7  1  0
  7  8  1  0
  8  9  1  0
  9 10  1  0
 10 11  1  0
 11 12  1  0
 11 13  1  0
 10 14  1  0
 14 15  1  0
 14 16  1  0
  1 17  1  0
  1 18  1  0
  1 19  1  0
  2 20  1  0
  2 21  1  0
  5 22  1  0
  5 23  1  0
  5 24  1  0
  8 25  1  0
  8 26  1  0
  9 27  1  0
  9 28  1  0
 10 29  1  6
 11 30  1  1
 12 31  1  0
 12 32  1  0
 12 33  1  0
 13 34  1  0
 13 35  1  0
 13 36  1  0
 14 37  1  1
 15 38  1  0
 15 39  1  0
 15 40  1  0
 16 41  1  0
 16 42  1  0
 16 43  1  0
M  CHG  1  10   1
M  END
$$$$
