VX
     RDKit          3D

 43 42  0  0  0  0  0  0  0  0999 V2000
    3.2568    0.2451    3.3429 C   0  0  0  0  0  0  0  0  0  0  0  0
    3.5286   -0.5920    2.1101 C   0  0  0  0  0  0  0  0  0  0  0  0
    2.9866    0.0742    0.9824 O   0  0  0  0  0  0  0  0  0  0  0  0
    2.6917   -0.7387   -0.3820 P   0  0  2  0  0  0  0  0  0  0  0  0
    3.5471   -2.2740   -0.6837 C   0  0  0  0  0  0  0  0  0  0  0  0
    1.7089   -0.2148   -1.3919 O   0  0  0  0  0  0  0  0  0  0  0  0
    0.9549   -1.9182    0.6961 S   0  0  0  0  0  0  0  0  0  0  0  0
   -0.4454   -0.7953    0.4401 C   0  0  0  0  0  0  0  0  0  0  0  0
   -1.7203   -1.3494    1.0703 C   0  0  0  0  0  0  0  0  0  0  0  0
   -2.9135   -0.3964    0.7735 N   0  0  1  0  0  0  0  0  0  0  0  0
   -3.9455   -1.0548   -0.1680 C   0  0  2  0  0  0  0  0  0  0  0  0
   -3.2649   -1.4209   -1.4955 C   0  0  0  0  0  0  0  0  0  0  0  0
   -5.1090   -0.1201   -0.4874 C   0  0  0  0  0  0  0  0  0  0  0  0
   -3.3969    0.2343    2.0912 C   0  0  2  0  0  0  0  0  0  0  0  0
   -4.3265   -0.6958    2.8603 C   0  0  0  0  0  0  0  0  0  0  0  0
   -3.9664    1.6336    1.8761 C   0  0  0  0  0  0  0  0  0  0  0  0
    3.6692   -0.2309    4.2368 H   0  0  0  0  0  0  0  0  0  0  0  0
    3.6978    1.2419    3.2377 H   0  0  0  0  0  0  0  0  0  0  0  0
    2.1799    0.3863    3.4824 H   0  0  0  0  0  0  0  0  0  0  0  0
    3.0764   -1.5816    2.2230 H   0  0  0  0  0  0  0  0  0  0  0  0
    4.6069   -0.7100    1.9679 H   0  0  0  0  0  0  0  0  0  0  0  0
    4.5161   -2.0853   -1.1540 H   0  0  0  0  0  0  0  0  0  0  0  0
    2.9603   -2.9087   -1.3539 H   0  0  0  0  0  0  0  0  0  0  0  0
    3.7148   -2.8289    0.2434 H   0  0  0  0  0  0  0  0  0  0  0  0
   -0.5846   -0.6552   -0.6355 H   0  0  0  0  0  0  0  0  0  0  0  0
   -0.1979    0.1775    0.8775 H   0  0  0  0  0  0  0  0  0  0  0  0
   -1.9806   -2.3456    0.6994 H   0  0  0  0  0  0  0  0  0  0  0  0
   -1.6093   -1.4359    2.1570 H   0  0  0  0  0  0  0  0  0  0  0  0
   -2.5297    0.3893    0.2298 H   0  0  0  0  0  0  0  0  0  0  0  0
   -4.3072   -1.9592    0.3334 H   0  0  0  0  0  0  0  0  0  0  0  0
   -3.9955   -1.8338   -2.2004 H   0  0  0  0  0  0  0  0  0  0  0  0
   -2.8094   -0.5418   -1.9647 H   0  0  0  0  0  0  0  0  0  0  0  0
   -2.4901   -2.1827   -1.3758 H   0  0  0  0  0  0  0  0  0  0  0  0
   -5.7311   -0.5385   -1.2874 H   0  0  0  0  0  0  0  0  0  0  0  0
   -4.7598    0.8618   -0.8235 H   0  0  0  0  0  0  0  0  0  0  0  0
   -5.7759    0.0086    0.3669 H   0  0  0  0  0  0  0  0  0  0  0  0
   -2.4874    0.3857    2.6867 H   0  0  0  0  0  0  0  0  0  0  0  0
   -4.5324   -0.2824    3.8538 H   0  0  0  0  0  0  0  0  0  0  0  0
   -5.2900   -0.8317    2.3628 H   0  0  0  0  0  0  0  0  0  0  0  0
   -3.8773   -1.6838    3.0030 H   0  0  0  0  0  0  0  0  0  0  0  0
   -4.9844    1.6314    1.4844 H   0  0  0  0  0  0  0  0  0  0  0  0
   -3.3348    2.2253    1.2055 H   0  0  0  0  0  0  0  0  0  0  0  0
   -4.0091    2.1634    2.8350 H   0  0  0  0  0  0  0  0  0  0  0  0
  1  2  1  0
  2  3  1  0
  4  3  1  1
  4  5  1  0
  4  6  2  0
  4  7  1  0
  7  8  1  0
  8  9  1  0
  9 10  1  0
 10 11  1  0
 11 12  1  0
 11 13  1  0
 10 14  1  0
 14 15  1  0
 14 16  1  0
  1 17  1  0
  1 18  1  0
  1 19  1  0
  2 20  1  0
  2 21  1  0
  5 22  1  0
  5 23  1  0
  5 24  1  0
  8 25  1  0
  8 26  1  0
  9 27  1  0
  9 28  1  0
 10 29  1  1
 11 30  1  1
 12 31  1  0
 12 32  1  0
 12 33  1  0
 13 34  1  0
 13 35  1  0
 13 36  1  0
 14 37  1  6
 15 38  1  0
 15 39  1  0
 15 40  1  0
 16 41  1  0
 16 42  1  0
 16 43  1  0
M  CHG  1  10   1
M  END
$$$$
