VX
     RDKit          3D

 43 42  0  0  0  0  0  0  0  0999 V2000
    3.5555    2.2337    1.8308 C   0  0  0  0  0  0  0  0  0  0  0  0
    4.0031    1.0676    0.9719 C   0  0  0  0  0  0  0  0  0  0  0  0
    2.9809    0.0809    0.9806 O   0  0  0  0  0  0  0  0  0  0  0  0
    2.6958   -0.7435   -0.3805 P   0  0  2  0  0  0  0  0  0  0  0  0
    3.5457   -2.2767   -0.6888 C   0  0  0  0  0  0  0  0  0  0  0  0
    1.7118   -0.2140   -1.3865 O   0  0  0  0  0  0  0  0  0  0  0  0
    0.9591   -1.9230    0.6976 S   0  0  0  0  0  0  0  0  0  0  0  0
   -0.1682   -0.6288    1.2811 C   0  0  0  0  0  0  0  0  0  0  0  0
   -0.5998    0.3226    0.1533 C   0  0  0  0  0  0  0  0  0  0  0  0
   -1.8022    1.1915    0.5881 N   0  0  2  0  0  0  0  0  0  0  0  0
   -3.1205    0.4081    0.5014 C   0  0  2  0  0  0  0  0  0  0  0  0
   -3.8068    0.4936   -0.8512 C   0  0  0  0  0  0  0  0  0  0  0  0
   -4.0472    0.7793    1.6564 C   0  0  0  0  0  0  0  0  0  0  0  0
   -1.6732    2.6201    0.0365 C   0  0  2  0  0  0  0  0  0  0  0  0
   -2.7165    3.5556    0.6304 C   0  0  0  0  0  0  0  0  0  0  0  0
   -1.6209    2.6983   -1.4863 C   0  0  0  0  0  0  0  0  0  0  0  0
    3.3243    1.9008    2.8489 H   0  0  0  0  0  0  0  0  0  0  0  0
    2.6391    2.6781    1.4253 H   0  0  0  0  0  0  0  0  0  0  0  0
    4.3294    3.0057    1.8775 H   0  0  0  0  0  0  0  0  0  0  0  0
    4.9166    0.6212    1.3793 H   0  0  0  0  0  0  0  0  0  0  0  0
    4.2058    1.4090   -0.0492 H   0  0  0  0  0  0  0  0  0  0  0  0
    4.4818   -2.1036   -1.2265 H   0  0  0  0  0  0  0  0  0  0  0  0
    2.9269   -2.9452   -1.2939 H   0  0  0  0  0  0  0  0  0  0  0  0
    3.7801   -2.7850    0.2507 H   0  0  0  0  0  0  0  0  0  0  0  0
   -1.0260   -1.1305    1.7365 H   0  0  0  0  0  0  0  0  0  0  0  0
    0.3313   -0.0609    2.0729 H   0  0  0  0  0  0  0  0  0  0  0  0
   -0.8979   -0.1985   -0.7622 H   0  0  0  0  0  0  0  0  0  0  0  0
    0.2187    1.0147   -0.0595 H   0  0  0  0  0  0  0  0  0  0  0  0
   -1.6531    1.3321    1.5954 H   0  0  0  0  0  0  0  0  0  0  0  0
   -2.8489   -0.6416    0.6577 H   0  0  0  0  0  0  0  0  0  0  0  0
   -4.2575    1.4743   -1.0259 H   0  0  0  0  0  0  0  0  0  0  0  0
   -3.1205    0.2568   -1.6692 H   0  0  0  0  0  0  0  0  0  0  0  0
   -4.6240   -0.2357   -0.8985 H   0  0  0  0  0  0  0  0  0  0  0  0
   -4.5034    1.7640    1.5328 H   0  0  0  0  0  0  0  0  0  0  0  0
   -3.5186    0.7582    2.6162 H   0  0  0  0  0  0  0  0  0  0  0  0
   -4.8698    0.0579    1.7204 H   0  0  0  0  0  0  0  0  0  0  0  0
   -0.7006    2.9606    0.4163 H   0  0  0  0  0  0  0  0  0  0  0  0
   -3.7127    3.3783    0.2186 H   0  0  0  0  0  0  0  0  0  0  0  0
   -2.4605    4.5955    0.3997 H   0  0  0  0  0  0  0  0  0  0  0  0
   -2.7586    3.4671    1.7203 H   0  0  0  0  0  0  0  0  0  0  0  0
   -2.5974    2.5504   -1.9525 H   0  0  0  0  0  0  0  0  0  0  0  0
   -0.9175    1.9815   -1.9199 H   0  0  0  0  0  0  0  0  0  0  0  0
   -1.2855    3.6981   -1.7897 H   0  0  0  0  0  0  0  0  0  0  0  0
  1  2  1  0
  2  3  1  0
  4  3  1  1
  4  5  1  0
  4  6  2  0
  4  7  1  0
  7  8  1  0
  8  9  1  0
  9 10  1  0
 10 11  1  0
 11 12  1  0
 11 13  1  0
 10 14  1  0
 14 15  1  0
 14 16  1  0
  1 17  1  0
  1 18  1  0
  1 19  1  0
  2 20  1  0
  2 21  1  0
  5 22  1  0
  5 23  1  0
  5 24  1  0
  8 25  1  0
  8 26  1  0
  9 27  1  0
  9 28  1  0
 10 29  1  1
 11 30  1  1
 12 31  1  0
 12 32  1  0
 12 33  1  0
 13 34  1  0
 13 35  1  0
 13 36  1  0
 14 37  1  6
 15 38  1  0
 15 39  1  0
 15 40  1  0
 16 41  1  0
 16 42  1  0
 16 43  1  0
M  CHG  1  10   1
M  END
$$$$
