VX
     RDKit          3D

 43 42  0  0  0  0  0  0  0  0999 V2000
    3.0748    2.4591    1.0600 C   0  0  0  0  0  0  0  0  0  0  0  0
    3.8765    1.1795    0.9321 C   0  0  0  0  0  0  0  0  0  0  0  0
    2.9924    0.0684    0.9854 O   0  0  0  0  0  0  0  0  0  0  0  0
    2.6881   -0.7356   -0.3843 P   0  0  2  0  0  0  0  0  0  0  0  0
    3.5465   -2.2691   -0.6792 C   0  0  0  0  0  0  0  0  0  0  0  0
    1.7073   -0.2170   -1.3971 O   0  0  0  0  0  0  0  0  0  0  0  0
    0.9514   -1.9150    0.6938 S   0  0  0  0  0  0  0  0  0  0  0  0
   -0.2827   -0.6193    0.9621 C   0  0  0  0  0  0  0  0  0  0  0  0
   -1.6803   -1.2300    1.0602 C   0  0  0  0  0  0  0  0  0  0  0  0
   -2.7434   -0.1193    1.2380 N   0  0  1  0  0  0  0  0  0  0  0  0
   -3.6223    0.0425   -0.0261 C   0  0  1  0  0  0  0  0  0  0  0  0
   -4.7072    1.1010    0.1821 C   0  0  0  0  0  0  0  0  0  0  0  0
   -2.7441    0.4687   -1.2078 C   0  0  0  0  0  0  0  0  0  0  0  0
   -3.5119   -0.2230    2.5671 C   0  0  2  0  0  0  0  0  0  0  0  0
   -2.5467   -0.0984    3.7461 C   0  0  0  0  0  0  0  0  0  0  0  0
   -4.3592   -1.4900    2.6350 C   0  0  0  0  0  0  0  0  0  0  0  0
    2.4958    2.4644    1.9887 H   0  0  0  0  0  0  0  0  0  0  0  0
    3.7304    3.3345    1.0467 H   0  0  0  0  0  0  0  0  0  0  0  0
    2.3569    2.5478    0.2373 H   0  0  0  0  0  0  0  0  0  0  0  0
    4.4474    1.1853   -0.0015 H   0  0  0  0  0  0  0  0  0  0  0  0
    4.5831    1.0873    1.7614 H   0  0  0  0  0  0  0  0  0  0  0  0
    3.7528   -2.7808    0.2650 H   0  0  0  0  0  0  0  0  0  0  0  0
    4.4974   -2.0979   -1.1913 H   0  0  0  0  0  0  0  0  0  0  0  0
    2.9410   -2.9334   -1.3032 H   0  0  0  0  0  0  0  0  0  0  0  0
   -0.0269   -0.0832    1.8819 H   0  0  0  0  0  0  0  0  0  0  0  0
   -0.2369    0.0983    0.1396 H   0  0  0  0  0  0  0  0  0  0  0  0
   -1.7415   -1.9094    1.9142 H   0  0  0  0  0  0  0  0  0  0  0  0
   -1.9487   -1.8073    0.1687 H   0  0  0  0  0  0  0  0  0  0  0  0
   -2.2368    0.7735    1.3115 H   0  0  0  0  0  0  0  0  0  0  0  0
   -4.0815   -0.9321   -0.2263 H   0  0  0  0  0  0  0  0  0  0  0  0
   -4.2825    2.0502    0.5236 H   0  0  0  0  0  0  0  0  0  0  0  0
   -5.2412    1.2915   -0.7533 H   0  0  0  0  0  0  0  0  0  0  0  0
   -5.4631    0.7749    0.9029 H   0  0  0  0  0  0  0  0  0  0  0  0
   -2.0085   -0.2957   -1.4767 H   0  0  0  0  0  0  0  0  0  0  0  0
   -3.3587    0.6382   -2.0999 H   0  0  0  0  0  0  0  0  0  0  0  0
   -2.2092    1.3999   -0.9899 H   0  0  0  0  0  0  0  0  0  0  0  0
   -4.1616    0.6553    2.6138 H   0  0  0  0  0  0  0  0  0  0  0  0
   -1.9267    0.7992    3.6538 H   0  0  0  0  0  0  0  0  0  0  0  0
   -1.8846   -0.9632    3.8434 H   0  0  0  0  0  0  0  0  0  0  0  0
   -3.1083   -0.0179    4.6844 H   0  0  0  0  0  0  0  0  0  0  0  0
   -4.9248   -1.5127    3.5725 H   0  0  0  0  0  0  0  0  0  0  0  0
   -3.7560   -2.4026    2.5997 H   0  0  0  0  0  0  0  0  0  0  0  0
   -5.0865   -1.5342    1.8181 H   0  0  0  0  0  0  0  0  0  0  0  0
  1  2  1  0
  2  3  1  0
  4  3  1  1
  4  5  1  0
  4  6  2  0
  4  7  1  0
  7  8  1  0
  8  9  1  0
  9 10  1  0
 10 11  1  0
 11 12  1  0
 11 13  1  0
 10 14  1  0
 14 15  1  0
 14 16  1  0
  1 17  1  0
  1 18  1  0
  1 19  1  0
  2 20  1  0
  2 21  1  0
  5 22  1  0
  5 23  1  0
  5 24  1  0
  8 25  1  0
  8 26  1  0
  9 27  1  0
  9 28  1  0
 10 29  1  6
 11 30  1  1
 12 31  1  0
 12 32  1  0
 12 33  1  0
 13 34  1  0
 13 35  1  0
 13 36  1  0
 14 37  1  6
 15 38  1  0
 15 39  1  0
 15 40  1  0
 16 41  1  0
 16 42  1  0
 16 43  1  0
M  CHG  1  10   1
M  END
$$$$
