VX
     RDKit          3D

 43 42  0  0  0  0  0  0  0  0999 V2000
    3.8763    1.8709    2.2689 C   0  0  0  0  0  0  0  0  0  0  0  0
    3.9351    1.1287    0.9497 C   0  0  0  0  0  0  0  0  0  0  0  0
    2.9876    0.0726    0.9824 O   0  0  0  0  0  0  0  0  0  0  0  0
    2.6920   -0.7390   -0.3817 P   0  0  2  0  0  0  0  0  0  0  0  0
    3.5467   -2.2723   -0.6824 C   0  0  0  0  0  0  0  0  0  0  0  0
    1.7079   -0.2147   -1.3934 O   0  0  0  0  0  0  0  0  0  0  0  0
    0.9553   -1.9184    0.6964 S   0  0  0  0  0  0  0  0  0  0  0  0
   -0.4147   -0.7339    0.6040 C   0  0  0  0  0  0  0  0  0  0  0  0
   -1.1246   -0.8263   -0.7556 C   0  0  0  0  0  0  0  0  0  0  0  0
   -1.9499    0.4338   -1.0432 N   0  0  1  0  0  0  0  0  0  0  0  0
   -1.0723    1.6203   -1.4946 C   0  0  1  0  0  0  0  0  0  0  0  0
   -0.7234    1.5747   -2.9757 C   0  0  0  0  0  0  0  0  0  0  0  0
   -1.7618    2.9301   -1.1113 C   0  0  0  0  0  0  0  0  0  0  0  0
   -3.2245    0.1945   -1.8683 C   0  0  1  0  0  0  0  0  0  0  0  0
   -3.0329   -0.8189   -2.9956 C   0  0  0  0  0  0  0  0  0  0  0  0
   -4.3404   -0.2450   -0.9187 C   0  0  0  0  0  0  0  0  0  0  0  0
    4.0931    1.1943    3.1022 H   0  0  0  0  0  0  0  0  0  0  0  0
    2.8727    2.2745    2.4394 H   0  0  0  0  0  0  0  0  0  0  0  0
    4.5956    2.6943    2.2861 H   0  0  0  0  0  0  0  0  0  0  0  0
    3.7022    1.8098    0.1255 H   0  0  0  0  0  0  0  0  0  0  0  0
    4.9356    0.7138    0.7976 H   0  0  0  0  0  0  0  0  0  0  0  0
    2.9229   -2.9464   -1.2764 H   0  0  0  0  0  0  0  0  0  0  0  0
    4.4758   -2.1025   -1.2328 H   0  0  0  0  0  0  0  0  0  0  0  0
    3.7909   -2.7720    0.2592 H   0  0  0  0  0  0  0  0  0  0  0  0
   -0.0157    0.2635    0.8052 H   0  0  0  0  0  0  0  0  0  0  0  0
   -1.1271   -0.9616    1.4041 H   0  0  0  0  0  0  0  0  0  0  0  0
   -1.8203   -1.6702   -0.7123 H   0  0  0  0  0  0  0  0  0  0  0  0
   -0.4571   -0.9723   -1.6077 H   0  0  0  0  0  0  0  0  0  0  0  0
   -2.2973    0.7267   -0.1216 H   0  0  0  0  0  0  0  0  0  0  0  0
   -0.1481    1.5591   -0.9129 H   0  0  0  0  0  0  0  0  0  0  0  0
   -0.2414    0.6328   -3.2517 H   0  0  0  0  0  0  0  0  0  0  0  0
   -1.6015    1.7201   -3.6121 H   0  0  0  0  0  0  0  0  0  0  0  0
   -0.0188    2.3784   -3.2176 H   0  0  0  0  0  0  0  0  0  0  0  0
   -2.0055    2.9496   -0.0437 H   0  0  0  0  0  0  0  0  0  0  0  0
   -1.0990    3.7789   -1.3127 H   0  0  0  0  0  0  0  0  0  0  0  0
   -2.6847    3.0958   -1.6748 H   0  0  0  0  0  0  0  0  0  0  0  0
   -3.5117    1.1587   -2.2973 H   0  0  0  0  0  0  0  0  0  0  0  0
   -2.9028   -1.8392   -2.6216 H   0  0  0  0  0  0  0  0  0  0  0  0
   -2.1804   -0.5825   -3.6347 H   0  0  0  0  0  0  0  0  0  0  0  0
   -3.9227   -0.8305   -3.6356 H   0  0  0  0  0  0  0  0  0  0  0  0
   -5.2795   -0.3762   -1.4670 H   0  0  0  0  0  0  0  0  0  0  0  0
   -4.1069   -1.1933   -0.4243 H   0  0  0  0  0  0  0  0  0  0  0  0
   -4.5148    0.5083   -0.1427 H   0  0  0  0  0  0  0  0  0  0  0  0
  1  2  1  0
  2  3  1  0
  4  3  1  1
  4  5  1  0
  4  6  2  0
  4  7  1  0
  7  8  1  0
  8  9  1  0
  9 10  1  0
 10 11  1  0
 11 12  1  0
 11 13  1  0
 10 14  1  0
 14 15  1  0
 14 16  1  0
  1 17  1  0
  1 18  1  0
  1 19  1  0
  2 20  1  0
  2 21  1  0
  5 22  1  0
  5 23  1  0
  5 24  1  0
  8 25  1  0
  8 26  1  0
  9 27  1  0
  9 28  1  0
 10 29  1  6
 11 30  1  6
 12 31  1  0
 12 32  1  0
 12 33  1  0
 13 34  1  0
 13 35  1  0
 13 36  1  0
 14 37  1  6
 15 38  1  0
 15 39  1  0
 15 40  1  0
 16 41  1  0
 16 42  1  0
 16 43  1  0
M  CHG  1  10   1
M  END
$$$$
