VX
     RDKit          3D

 43 42  0  0  0  0  0  0  0  0999 V2000
    3.7925    1.9704    2.1823 C   0  0  0  0  0  0  0  0  0  0  0  0
    3.9729    1.0964    0.9583 C   0  0  0  0  0  0  0  0  0  0  0  0
    2.9828    0.0788    0.9814 O   0  0  0  0  0  0  0  0  0  0  0  0
    2.6947   -0.7422   -0.3810 P   0  0  2  0  0  0  0  0  0  0  0  0
    3.5460   -2.2756   -0.6871 C   0  0  0  0  0  0  0  0  0  0  0  0
    1.7108   -0.2143   -1.3884 O   0  0  0  0  0  0  0  0  0  0  0  0
    0.9579   -1.9217    0.6971 S   0  0  0  0  0  0  0  0  0  0  0  0
   -0.5509   -1.2489   -0.0706 C   0  0  0  0  0  0  0  0  0  0  0  0
   -0.6719    0.2783    0.0367 C   0  0  0  0  0  0  0  0  0  0  0  0
   -1.7684    0.8175    0.9611 N   0  0  1  0  0  0  0  0  0  0  0  0
   -3.2052    0.8575    0.4097 C   0  0  2  0  0  0  0  0  0  0  0  0
   -3.6230   -0.4213   -0.3029 C   0  0  0  0  0  0  0  0  0  0  0  0
   -3.3521    2.0703   -0.5129 C   0  0  0  0  0  0  0  0  0  0  0  0
   -1.6758    0.5636    2.4690 C   0  0  2  0  0  0  0  0  0  0  0  0
   -0.2965    0.9426    3.0024 C   0  0  0  0  0  0  0  0  0  0  0  0
   -2.1000   -0.8355    2.8861 C   0  0  0  0  0  0  0  0  0  0  0  0
    3.8737    1.3754    3.0981 H   0  0  0  0  0  0  0  0  0  0  0  0
    4.5437    2.7645    2.2090 H   0  0  0  0  0  0  0  0  0  0  0  0
    2.7965    2.4261    2.1854 H   0  0  0  0  0  0  0  0  0  0  0  0
    3.8719    1.6990    0.0504 H   0  0  0  0  0  0  0  0  0  0  0  0
    4.9633    0.6315    0.9697 H   0  0  0  0  0  0  0  0  0  0  0  0
    3.7911   -2.7768    0.2531 H   0  0  0  0  0  0  0  0  0  0  0  0
    2.9219   -2.9483   -1.2825 H   0  0  0  0  0  0  0  0  0  0  0  0
    4.4753   -2.1041   -1.2371 H   0  0  0  0  0  0  0  0  0  0  0  0
   -0.5015   -1.5250   -1.1300 H   0  0  0  0  0  0  0  0  0  0  0  0
   -1.4053   -1.7789    0.3478 H   0  0  0  0  0  0  0  0  0  0  0  0
   -0.8989    0.6894   -0.9532 H   0  0  0  0  0  0  0  0  0  0  0  0
    0.2523    0.7636    0.3641 H   0  0  0  0  0  0  0  0  0  0  0  0
   -1.5237    1.8169    0.9460 H   0  0  0  0  0  0  0  0  0  0  0  0
   -3.8633    1.0159    1.2719 H   0  0  0  0  0  0  0  0  0  0  0  0
   -3.0325   -0.6036   -1.2059 H   0  0  0  0  0  0  0  0  0  0  0  0
   -4.6697   -0.3455   -0.6195 H   0  0  0  0  0  0  0  0  0  0  0  0
   -3.5553   -1.2962    0.3472 H   0  0  0  0  0  0  0  0  0  0  0  0
   -3.0983    2.9981    0.0113 H   0  0  0  0  0  0  0  0  0  0  0  0
   -2.7129    1.9929   -1.3981 H   0  0  0  0  0  0  0  0  0  0  0  0
   -4.3877    2.1636   -0.8587 H   0  0  0  0  0  0  0  0  0  0  0  0
   -2.3873    1.2739    2.9106 H   0  0  0  0  0  0  0  0  0  0  0  0
   -0.0055    1.9464    2.6759 H   0  0  0  0  0  0  0  0  0  0  0  0
   -0.3037    0.9440    4.0982 H   0  0  0  0  0  0  0  0  0  0  0  0
    0.4789    0.2415    2.6873 H   0  0  0  0  0  0  0  0  0  0  0  0
   -2.1195   -0.9044    3.9799 H   0  0  0  0  0  0  0  0  0  0  0  0
   -1.4150   -1.6090    2.5401 H   0  0  0  0  0  0  0  0  0  0  0  0
   -3.1079   -1.0751    2.5395 H   0  0  0  0  0  0  0  0  0  0  0  0
  1  2  1  0
  2  3  1  0
  4  3  1  1
  4  5  1  0
  4  6  2  0
  4  7  1  0
  7  8  1  0
  8  9  1  0
  9 10  1  0
 10 11  1  0
 11 12  1  0
 11 13  1  0
 10 14  1  0
 14 15  1  0
 14 16  1  0
  1 17  1  0
  1 18  1  0
  1 19  1  0
  2 20  1  0
  2 21  1  0
  5 22  1  0
  5 23  1  0
  5 24  1  0
  8 25  1  0
  8 26  1  0
  9 27  1  0
  9 28  1  0
 10 29  1  6
 11 30  1  1
 12 31  1  0
 12 32  1  0
 12 33  1  0
 13 34  1  0
 13 35  1  0
 13 36  1  0
 14 37  1  6
 15 38  1  0
 15 39  1  0
 15 40  1  0
 16 41  1  0
 16 42  1  0
 16 43  1  0
M  CHG  1  10   1
M  END
$$$$
