VX
     RDKit          3D

 43 42  0  0  0  0  0  0  0  0999 V2000
    4.0652    1.7209    2.3216 C   0  0  0  0  0  0  0  0  0  0  0  0
    3.8049    1.2243    0.9146 C   0  0  0  0  0  0  0  0  0  0  0  0
    3.0024    0.0553    0.9873 O   0  0  0  0  0  0  0  0  0  0  0  0
    2.6813   -0.7278   -0.3868 P   0  0  2  0  0  0  0  0  0  0  0  0
    3.5475   -2.2618   -0.6696 C   0  0  0  0  0  0  0  0  0  0  0  0
    1.7030   -0.2191   -1.4061 O   0  0  0  0  0  0  0  0  0  0  0  0
    0.9446   -1.9073    0.6913 S   0  0  0  0  0  0  0  0  0  0  0  0
   -0.0757   -2.5149   -0.6912 C   0  0  0  0  0  0  0  0  0  0  0  0
   -1.4799   -2.8718   -0.1992 C   0  0  0  0  0  0  0  0  0  0  0  0
   -2.1291   -1.7181    0.5823 N   0  0  2  0  0  0  0  0  0  0  0  0
   -3.0480   -2.2381    1.6962 C   0  0  1  0  0  0  0  0  0  0  0  0
   -3.2235   -1.1744    2.7790 C   0  0  0  0  0  0  0  0  0  0  0  0
   -4.3747   -2.7376    1.1390 C   0  0  0  0  0  0  0  0  0  0  0  0
   -2.6866   -0.5316   -0.2250 C   0  0  2  0  0  0  0  0  0  0  0  0
   -3.1774   -0.9251   -1.6138 C   0  0  0  0  0  0  0  0  0  0  0  0
   -1.6526    0.5897   -0.2853 C   0  0  0  0  0  0  0  0  0  0  0  0
    3.1225    1.9404    2.8336 H   0  0  0  0  0  0  0  0  0  0  0  0
    4.6792    2.6257    2.3088 H   0  0  0  0  0  0  0  0  0  0  0  0
    4.5774    0.9542    2.9122 H   0  0  0  0  0  0  0  0  0  0  0  0
    3.2757    1.9890    0.3377 H   0  0  0  0  0  0  0  0  0  0  0  0
    4.7509    0.9937    0.4160 H   0  0  0  0  0  0  0  0  0  0  0  0
    2.9375   -2.9379   -1.2755 H   0  0  0  0  0  0  0  0  0  0  0  0
    3.7735   -2.7590    0.2780 H   0  0  0  0  0  0  0  0  0  0  0  0
    4.4879   -2.0883   -1.1992 H   0  0  0  0  0  0  0  0  0  0  0  0
    0.4075   -3.3971   -1.1222 H   0  0  0  0  0  0  0  0  0  0  0  0
   -0.1306   -1.7564   -1.4743 H   0  0  0  0  0  0  0  0  0  0  0  0
   -1.4044   -3.7258    0.4844 H   0  0  0  0  0  0  0  0  0  0  0  0
   -2.1459   -3.1696   -1.0127 H   0  0  0  0  0  0  0  0  0  0  0  0
   -1.3231   -1.3366    1.1060 H   0  0  0  0  0  0  0  0  0  0  0  0
   -2.5146   -3.0772    2.1587 H   0  0  0  0  0  0  0  0  0  0  0  0
   -3.7364   -1.6047    3.6464 H   0  0  0  0  0  0  0  0  0  0  0  0
   -2.2543   -0.7975    3.1227 H   0  0  0  0  0  0  0  0  0  0  0  0
   -3.8218   -0.3231    2.4425 H   0  0  0  0  0  0  0  0  0  0  0  0
   -4.2240   -3.4939    0.3624 H   0  0  0  0  0  0  0  0  0  0  0  0
   -4.9666   -3.2008    1.9362 H   0  0  0  0  0  0  0  0  0  0  0  0
   -4.9782   -1.9278    0.7177 H   0  0  0  0  0  0  0  0  0  0  0  0
   -3.5436   -0.1440    0.3321 H   0  0  0  0  0  0  0  0  0  0  0  0
   -2.3575   -1.2253   -2.2733 H   0  0  0  0  0  0  0  0  0  0  0  0
   -3.6724   -0.0714   -2.0907 H   0  0  0  0  0  0  0  0  0  0  0  0
   -3.9082   -1.7380   -1.5702 H   0  0  0  0  0  0  0  0  0  0  0  0
   -0.7910    0.3242   -0.9009 H   0  0  0  0  0  0  0  0  0  0  0  0
   -2.0978    1.4893   -0.7249 H   0  0  0  0  0  0  0  0  0  0  0  0
   -1.2963    0.8569    0.7151 H   0  0  0  0  0  0  0  0  0  0  0  0
  1  2  1  0
  2  3  1  0
  4  3  1  1
  4  5  1  0
  4  6  2  0
  4  7  1  0
  7  8  1  0
  8  9  1  0
  9 10  1  0
 10 11  1  0
 11 12  1  0
 11 13  1  0
 10 14  1  0
 14 15  1  0
 14 16  1  0
  1 17  1  0
  1 18  1  0
  1 19  1  0
  2 20  1  0
  2 21  1  0
  5 22  1  0
  5 23  1  0
  5 24  1  0
  8 25  1  0
  8 26  1  0
  9 27  1  0
  9 28  1  0
 10 29  1  1
 11 30  1  6
 12 31  1  0
 12 32  1  0
 12 33  1  0
 13 34  1  0
 13 35  1  0
 13 36  1  0
 14 37  1  6
 15 38  1  0
 15 39  1  0
 15 40  1  0
 16 41  1  0
 16 42  1  0
 16 43  1  0
M  CHG  1  10   1
M  END
$$$$
