VX
     RDKit          3D

 43 42  0  0  0  0  0  0  0  0999 V2000
    3.1422    2.4552    1.1165 C   0  0  0  0  0  0  0  0  0  0  0  0
    3.9048    1.1586    0.9383 C   0  0  0  0  0  0  0  0  0  0  0  0
    2.9912    0.0704    0.9857 O   0  0  0  0  0  0  0  0  0  0  0  0
    2.6881   -0.7360   -0.3848 P   0  0  2  0  0  0  0  0  0  0  0  0
    3.5462   -2.2702   -0.6808 C   0  0  0  0  0  0  0  0  0  0  0  0
    1.7087   -0.2175   -1.3953 O   0  0  0  0  0  0  0  0  0  0  0  0
    0.9513   -1.9154    0.6933 S   0  0  0  0  0  0  0  0  0  0  0  0
    0.8360   -1.1674    2.3423 C   0  0  0  0  0  0  0  0  0  0  0  0
   -0.0131    0.1136    2.3675 C   0  0  0  0  0  0  0  0  0  0  0  0
   -1.3659   -0.0504    1.6396 N   0  0  1  0  0  0  0  0  0  0  0  0
   -2.5249   -0.5158    2.5425 C   0  0  1  0  0  0  0  0  0  0  0  0
   -2.2222   -1.8521    3.2112 C   0  0  0  0  0  0  0  0  0  0  0  0
   -2.9098    0.5449    3.5726 C   0  0  0  0  0  0  0  0  0  0  0  0
   -1.7106    1.1769    0.7506 C   0  0  2  0  0  0  0  0  0  0  0  0
   -3.1083    1.0556    0.1343 C   0  0  0  0  0  0  0  0  0  0  0  0
   -0.7086    1.2975   -0.3988 C   0  0  0  0  0  0  0  0  0  0  0  0
    2.5635    2.4413    2.0458 H   0  0  0  0  0  0  0  0  0  0  0  0
    2.4277    2.5998    0.3006 H   0  0  0  0  0  0  0  0  0  0  0  0
    3.8252    3.3095    1.1374 H   0  0  0  0  0  0  0  0  0  0  0  0
    4.6243    1.0274    1.7526 H   0  0  0  0  0  0  0  0  0  0  0  0
    4.4595    1.1703   -0.0048 H   0  0  0  0  0  0  0  0  0  0  0  0
    2.9342   -2.9377   -1.2951 H   0  0  0  0  0  0  0  0  0  0  0  0
    4.4895   -2.0978   -1.2050 H   0  0  0  0  0  0  0  0  0  0  0  0
    3.7656   -2.7782    0.2631 H   0  0  0  0  0  0  0  0  0  0  0  0
    1.8392   -0.9577    2.7227 H   0  0  0  0  0  0  0  0  0  0  0  0
    0.4193   -1.9229    3.0111 H   0  0  0  0  0  0  0  0  0  0  0  0
    0.5369    0.9318    1.8984 H   0  0  0  0  0  0  0  0  0  0  0  0
   -0.2113    0.4235    3.3971 H   0  0  0  0  0  0  0  0  0  0  0  0
   -1.2112   -0.8188    0.9647 H   0  0  0  0  0  0  0  0  0  0  0  0
   -3.3704   -0.7027    1.8742 H   0  0  0  0  0  0  0  0  0  0  0  0
   -3.1352   -2.2532    3.6667 H   0  0  0  0  0  0  0  0  0  0  0  0
   -1.4901   -1.7517    4.0177 H   0  0  0  0  0  0  0  0  0  0  0  0
   -1.8676   -2.5922    2.4884 H   0  0  0  0  0  0  0  0  0  0  0  0
   -2.1258    0.7055    4.3185 H   0  0  0  0  0  0  0  0  0  0  0  0
   -3.8069    0.2257    4.1159 H   0  0  0  0  0  0  0  0  0  0  0  0
   -3.1406    1.5096    3.1123 H   0  0  0  0  0  0  0  0  0  0  0  0
   -1.6542    2.0600    1.3969 H   0  0  0  0  0  0  0  0  0  0  0  0
   -3.2343    0.1023   -0.3892 H   0  0  0  0  0  0  0  0  0  0  0  0
   -3.8998    1.1508    0.8836 H   0  0  0  0  0  0  0  0  0  0  0  0
   -3.2808    1.8593   -0.5916 H   0  0  0  0  0  0  0  0  0  0  0  0
   -0.6975    0.3897   -1.0111 H   0  0  0  0  0  0  0  0  0  0  0  0
   -0.9767    2.1324   -1.0563 H   0  0  0  0  0  0  0  0  0  0  0  0
    0.3059    1.4997   -0.0505 H   0  0  0  0  0  0  0  0  0  0  0  0
  1  2  1  0
  2  3  1  0
  4  3  1  1
  4  5  1  0
  4  6  2  0
  4  7  1  0
  7  8  1  0
  8  9  1  0
  9 10  1  0
 10 11  1  0
 11 12  1  0
 11 13  1  0
 10 14  1  0
 14 15  1  0
 14 16  1  0
  1 17  1  0
  1 18  1  0
  1 19  1  0
  2 20  1  0
  2 21  1  0
  5 22  1  0
  5 23  1  0
  5 24  1  0
  8 25  1  0
  8 26  1  0
  9 27  1  0
  9 28  1  0
 10 29  1  1
 11 30  1  1
 12 31  1  0
 12 32  1  0
 12 33  1  0
 13 34  1  0
 13 35  1  0
 13 36  1  0
 14 37  1  6
 15 38  1  0
 15 39  1  0
 15 40  1  0
 16 41  1  0
 16 42  1  0
 16 43  1  0
M  CHG  1  10   1
M  END
$$$$
