VX
     RDKit          3D

 43 42  0  0  0  0  0  0  0  0999 V2000
    4.0081    1.7568    2.3210 C   0  0  0  0  0  0  0  0  0  0  0  0
    3.8739    1.1796    0.9269 C   0  0  0  0  0  0  0  0  0  0  0  0
    2.9891    0.0700    0.9818 O   0  0  0  0  0  0  0  0  0  0  0  0
    2.6904   -0.7374   -0.3826 P   0  0  2  0  0  0  0  0  0  0  0  0
    3.5461   -2.2700   -0.6808 C   0  0  0  0  0  0  0  0  0  0  0  0
    1.7087   -0.2160   -1.3936 O   0  0  0  0  0  0  0  0  0  0  0  0
    0.9537   -1.9168    0.6955 S   0  0  0  0  0  0  0  0  0  0  0  0
   -0.0487   -0.5983    1.4536 C   0  0  0  0  0  0  0  0  0  0  0  0
   -0.8621    0.2266    0.4382 C   0  0  0  0  0  0  0  0  0  0  0  0
   -1.4922   -0.6419   -0.6750 N   0  0  2  0  0  0  0  0  0  0  0  0
   -1.2752    0.0423   -2.0496 C   0  0  2  0  0  0  0  0  0  0  0  0
   -2.3999    1.0107   -2.3938 C   0  0  0  0  0  0  0  0  0  0  0  0
   -0.9895   -0.9832   -3.1433 C   0  0  0  0  0  0  0  0  0  0  0  0
   -2.9207   -1.1325   -0.3626 C   0  0  1  0  0  0  0  0  0  0  0  0
   -3.3682   -2.1918   -1.3684 C   0  0  0  0  0  0  0  0  0  0  0  0
   -3.0157   -1.7406    1.0380 C   0  0  0  0  0  0  0  0  0  0  0  0
    4.4036    1.0042    3.0119 H   0  0  0  0  0  0  0  0  0  0  0  0
    3.0308    2.0612    2.7092 H   0  0  0  0  0  0  0  0  0  0  0  0
    4.6750    2.6234    2.3230 H   0  0  0  0  0  0  0  0  0  0  0  0
    3.4683    1.9335    0.2443 H   0  0  0  0  0  0  0  0  0  0  0  0
    4.8522    0.8547    0.5598 H   0  0  0  0  0  0  0  0  0  0  0  0
    2.9178   -2.9519   -1.2604 H   0  0  0  0  0  0  0  0  0  0  0  0
    3.8044   -2.7597    0.2619 H   0  0  0  0  0  0  0  0  0  0  0  0
    4.4682   -2.1029   -1.2429 H   0  0  0  0  0  0  0  0  0  0  0  0
    0.6096    0.0674    2.0210 H   0  0  0  0  0  0  0  0  0  0  0  0
   -0.7039   -1.0713    2.1873 H   0  0  0  0  0  0  0  0  0  0  0  0
   -0.1903    0.9565   -0.0234 H   0  0  0  0  0  0  0  0  0  0  0  0
   -1.6662    0.7965    0.9164 H   0  0  0  0  0  0  0  0  0  0  0  0
   -0.8899   -1.4805   -0.6985 H   0  0  0  0  0  0  0  0  0  0  0  0
   -0.3622    0.6358   -1.9605 H   0  0  0  0  0  0  0  0  0  0  0  0
   -2.5858    1.7107   -1.5729 H   0  0  0  0  0  0  0  0  0  0  0  0
   -2.1270    1.6022   -3.2746 H   0  0  0  0  0  0  0  0  0  0  0  0
   -3.3358    0.4998   -2.6328 H   0  0  0  0  0  0  0  0  0  0  0  0
   -1.8792   -1.5175   -3.4787 H   0  0  0  0  0  0  0  0  0  0  0  0
   -0.5831   -0.4744   -4.0246 H   0  0  0  0  0  0  0  0  0  0  0  0
   -0.2458   -1.7181   -2.8199 H   0  0  0  0  0  0  0  0  0  0  0  0
   -3.5782   -0.2581   -0.4060 H   0  0  0  0  0  0  0  0  0  0  0  0
   -2.6052   -2.9655   -1.5068 H   0  0  0  0  0  0  0  0  0  0  0  0
   -4.2849   -2.6886   -1.0311 H   0  0  0  0  0  0  0  0  0  0  0  0
   -3.6139   -1.7521   -2.3371 H   0  0  0  0  0  0  0  0  0  0  0  0
   -2.2923   -2.5495    1.1784 H   0  0  0  0  0  0  0  0  0  0  0  0
   -4.0139   -2.1612    1.2071 H   0  0  0  0  0  0  0  0  0  0  0  0
   -2.8755   -0.9870    1.8178 H   0  0  0  0  0  0  0  0  0  0  0  0
  1  2  1  0
  2  3  1  0
  4  3  1  1
  4  5  1  0
  4  6  2  0
  4  7  1  0
  7  8  1  0
  8  9  1  0
  9 10  1  0
 10 11  1  0
 11 12  1  0
 11 13  1  0
 10 14  1  0
 14 15  1  0
 14 16  1  0
  1 17  1  0
  1 18  1  0
  1 19  1  0
  2 20  1  0
  2 21  1  0
  5 22  1  0
  5 23  1  0
  5 24  1  0
  8 25  1  0
  8 26  1  0
  9 27  1  0
  9 28  1  0
 10 29  1  6
 11 30  1  1
 12 31  1  0
 12 32  1  0
 12 33  1  0
 13 34  1  0
 13 35  1  0
 13 36  1  0
 14 37  1  1
 15 38  1  0
 15 39  1  0
 15 40  1  0
 16 41  1  0
 16 42  1  0
 16 43  1  0
M  CHG  1  10   1
M  END
$$$$
