VX
     RDKit          3D

 43 42  0  0  0  0  0  0  0  0999 V2000
    4.5553    0.0710    2.7673 C   0  0  0  0  0  0  0  0  0  0  0  0
    3.3285   -0.5912    2.1771 C   0  0  0  0  0  0  0  0  0  0  0  0
    2.9787    0.0824    0.9788 O   0  0  0  0  0  0  0  0  0  0  0  0
    2.6975   -0.7444   -0.3788 P   0  0  2  0  0  0  0  0  0  0  0  0
    3.5469   -2.2794   -0.6899 C   0  0  0  0  0  0  0  0  0  0  0  0
    1.7111   -0.2120   -1.3853 O   0  0  0  0  0  0  0  0  0  0  0  0
    0.9608   -1.9238    0.6993 S   0  0  0  0  0  0  0  0  0  0  0  0
   -0.5409   -1.1571    0.0206 C   0  0  0  0  0  0  0  0  0  0  0  0
   -0.6317    0.3348    0.3837 C   0  0  0  0  0  0  0  0  0  0  0  0
   -1.7570    1.0333   -0.4189 N   0  0  1  0  0  0  0  0  0  0  0  0
   -2.4258    2.1879    0.3629 C   0  0  1  0  0  0  0  0  0  0  0  0
   -3.5927    2.7851   -0.4242 C   0  0  0  0  0  0  0  0  0  0  0  0
   -2.9929    1.6701    1.6946 C   0  0  0  0  0  0  0  0  0  0  0  0
   -1.2164    1.3531   -1.8396 C   0  0  2  0  0  0  0  0  0  0  0  0
   -0.4885    2.6907   -1.9057 C   0  0  0  0  0  0  0  0  0  0  0  0
   -2.3097    1.1914   -2.8915 C   0  0  0  0  0  0  0  0  0  0  0  0
    5.3946    0.0225    2.0650 H   0  0  0  0  0  0  0  0  0  0  0  0
    4.3649    1.1313    2.9634 H   0  0  0  0  0  0  0  0  0  0  0  0
    4.8485   -0.4131    3.7031 H   0  0  0  0  0  0  0  0  0  0  0  0
    3.5204   -1.6526    1.9981 H   0  0  0  0  0  0  0  0  0  0  0  0
    2.4854   -0.5116    2.8701 H   0  0  0  0  0  0  0  0  0  0  0  0
    4.5135   -2.0898   -1.1637 H   0  0  0  0  0  0  0  0  0  0  0  0
    3.7204   -2.8440    0.2290 H   0  0  0  0  0  0  0  0  0  0  0  0
    2.9559   -2.9093   -1.3619 H   0  0  0  0  0  0  0  0  0  0  0  0
   -1.4093   -1.6860    0.4287 H   0  0  0  0  0  0  0  0  0  0  0  0
   -0.5450   -1.3244   -1.0594 H   0  0  0  0  0  0  0  0  0  0  0  0
    0.2835    0.9044    0.2071 H   0  0  0  0  0  0  0  0  0  0  0  0
   -0.8591    0.4090    1.4469 H   0  0  0  0  0  0  0  0  0  0  0  0
   -2.4965    0.3300   -0.5447 H   0  0  0  0  0  0  0  0  0  0  0  0
   -1.6553    2.9427    0.5529 H   0  0  0  0  0  0  0  0  0  0  0  0
   -3.2593    3.3628   -1.2875 H   0  0  0  0  0  0  0  0  0  0  0  0
   -4.1592    3.4887    0.1979 H   0  0  0  0  0  0  0  0  0  0  0  0
   -4.2889    2.0091   -0.7620 H   0  0  0  0  0  0  0  0  0  0  0  0
   -2.2097    1.5020    2.4377 H   0  0  0  0  0  0  0  0  0  0  0  0
   -3.5545    0.7396    1.5591 H   0  0  0  0  0  0  0  0  0  0  0  0
   -3.6683    2.4069    2.1443 H   0  0  0  0  0  0  0  0  0  0  0  0
   -0.4858    0.5718   -2.0630 H   0  0  0  0  0  0  0  0  0  0  0  0
   -1.1616    3.5454   -1.8062 H   0  0  0  0  0  0  0  0  0  0  0  0
    0.0125    2.7920   -2.8757 H   0  0  0  0  0  0  0  0  0  0  0  0
    0.2808    2.7701   -1.1325 H   0  0  0  0  0  0  0  0  0  0  0  0
   -1.8597    1.1725   -3.8913 H   0  0  0  0  0  0  0  0  0  0  0  0
   -2.8506    0.2487   -2.7613 H   0  0  0  0  0  0  0  0  0  0  0  0
   -3.0342    2.0062   -2.8947 H   0  0  0  0  0  0  0  0  0  0  0  0
  1  2  1  0
  2  3  1  0
  4  3  1  1
  4  5  1  0
  4  6  2  0
  4  7  1  0
  7  8  1  0
  8  9  1  0
  9 10  1  0
 10 11  1  0
 11 12  1  0
 11 13  1  0
 10 14  1  0
 14 15  1  0
 14 16  1  0
  1 17  1  0
  1 18  1  0
  1 19  1  0
  2 20  1  0
  2 21  1  0
  5 22  1  0
  5 23  1  0
  5 24  1  0
  8 25  1  0
  8 26  1  0
  9 27  1  0
  9 28  1  0
 10 29  1  1
 11 30  1  6
 12 31  1  0
 12 32  1  0
 12 33  1  0
 13 34  1  0
 13 35  1  0
 13 36  1  0
 14 37  1  1
 15 38  1  0
 15 39  1  0
 15 40  1  0
 16 41  1  0
 16 42  1  0
 16 43  1  0
M  CHG  1  10   1
M  END
$$$$
