VX
     RDKit          3D

 43 42  0  0  0  0  0  0  0  0999 V2000
    3.5995    2.1492    1.9806 C   0  0  0  0  0  0  0  0  0  0  0  0
    3.9748    1.0937    0.9619 C   0  0  0  0  0  0  0  0  0  0  0  0
    2.9828    0.0789    0.9815 O   0  0  0  0  0  0  0  0  0  0  0  0
    2.6949   -0.7426   -0.3810 P   0  0  2  0  0  0  0  0  0  0  0  0
    3.5457   -2.2752   -0.6872 C   0  0  0  0  0  0  0  0  0  0  0  0
    1.7108   -0.2144   -1.3886 O   0  0  0  0  0  0  0  0  0  0  0  0
    0.9582   -1.9221    0.6971 S   0  0  0  0  0  0  0  0  0  0  0  0
   -0.1749   -0.6095    1.2460 C   0  0  0  0  0  0  0  0  0  0  0  0
   -0.6450    0.2668    0.0811 C   0  0  0  0  0  0  0  0  0  0  0  0
   -1.9541    1.0326    0.3442 N   0  0  2  0  0  0  0  0  0  0  0  0
   -1.8528    2.2462    1.2851 C   0  0  1  0  0  0  0  0  0  0  0  0
   -1.7978    1.8581    2.7581 C   0  0  0  0  0  0  0  0  0  0  0  0
   -0.6905    3.1598    0.8951 C   0  0  0  0  0  0  0  0  0  0  0  0
   -3.1959    0.1338    0.5564 C   0  0  1  0  0  0  0  0  0  0  0  0
   -4.4732    0.9787    0.5498 C   0  0  0  0  0  0  0  0  0  0  0  0
   -3.2950   -0.9160   -0.5537 C   0  0  0  0  0  0  0  0  0  0  0  0
    2.6275    2.5899    1.7335 H   0  0  0  0  0  0  0  0  0  0  0  0
    4.3479    2.9462    2.0143 H   0  0  0  0  0  0  0  0  0  0  0  0
    3.5052    1.7089    2.9793 H   0  0  0  0  0  0  0  0  0  0  0  0
    4.9402    0.6445    1.2153 H   0  0  0  0  0  0  0  0  0  0  0  0
    4.0457    1.5428   -0.0347 H   0  0  0  0  0  0  0  0  0  0  0  0
    4.4873   -2.1013   -1.2135 H   0  0  0  0  0  0  0  0  0  0  0  0
    2.9291   -2.9336   -1.3045 H   0  0  0  0  0  0  0  0  0  0  0  0
    3.7672   -2.7937    0.2514 H   0  0  0  0  0  0  0  0  0  0  0  0
   -1.0081   -1.1016    1.7520 H   0  0  0  0  0  0  0  0  0  0  0  0
    0.3636   -0.0075    1.9809 H   0  0  0  0  0  0  0  0  0  0  0  0
   -0.8203   -0.3165   -0.8285 H   0  0  0  0  0  0  0  0  0  0  0  0
    0.1064    1.0150   -0.1780 H   0  0  0  0  0  0  0  0  0  0  0  0
   -2.1315    1.4687   -0.5720 H   0  0  0  0  0  0  0  0  0  0  0  0
   -2.7659    2.8252    1.1064 H   0  0  0  0  0  0  0  0  0  0  0  0
   -2.6289    1.2125    3.0505 H   0  0  0  0  0  0  0  0  0  0  0  0
   -1.8621    2.7601    3.3770 H   0  0  0  0  0  0  0  0  0  0  0  0
   -0.8633    1.3626    3.0294 H   0  0  0  0  0  0  0  0  0  0  0  0
   -0.6938    3.3715   -0.1792 H   0  0  0  0  0  0  0  0  0  0  0  0
    0.2812    2.7334    1.1697 H   0  0  0  0  0  0  0  0  0  0  0  0
   -0.7754    4.1190    1.4178 H   0  0  0  0  0  0  0  0  0  0  0  0
   -3.0817   -0.3630    1.5243 H   0  0  0  0  0  0  0  0  0  0  0  0
   -5.3617    0.3376    0.5732 H   0  0  0  0  0  0  0  0  0  0  0  0
   -4.5397    1.6223    1.4307 H   0  0  0  0  0  0  0  0  0  0  0  0
   -4.5372    1.6086   -0.3444 H   0  0  0  0  0  0  0  0  0  0  0  0
   -4.2469   -1.4549   -0.4900 H   0  0  0  0  0  0  0  0  0  0  0  0
   -2.5087   -1.6729   -0.4667 H   0  0  0  0  0  0  0  0  0  0  0  0
   -3.2348   -0.4588   -1.5482 H   0  0  0  0  0  0  0  0  0  0  0  0
  1  2  1  0
  2  3  1  0
  4  3  1  1
  4  5  1  0
  4  6  2  0
  4  7  1  0
  7  8  1  0
  8  9  1  0
  9 10  1  0
 10 11  1  0
 11 12  1  0
 11 13  1  0
 10 14  1  0
 14 15  1  0
 14 16  1  0
  1 17  1  0
  1 18  1  0
  1 19  1  0
  2 20  1  0
  2 21  1  0
  5 22  1  0
  5 23  1  0
  5 24  1  0
  8 25  1  0
  8 26  1  0
  9 27  1  0
  9 28  1  0
 10 29  1  6
 11 30  1  6
 12 31  1  0
 12 32  1  0
 12 33  1  0
 13 34  1  0
 13 35  1  0
 13 36  1  0
 14 37  1  1
 15 38  1  0
 15 39  1  0
 15 40  1  0
 16 41  1  0
 16 42  1  0
 16 43  1  0
M  CHG  1  10   1
M  END
$$$$
