VX
     RDKit          3D

 43 42  0  0  0  0  0  0  0  0999 V2000
    4.8863    1.5194    0.5342 C   0  0  0  0  0  0  0  0  0  0  0  0
    3.4361    1.4038    0.9550 C   0  0  0  0  0  0  0  0  0  0  0  0
    3.0044    0.0527    0.9877 O   0  0  0  0  0  0  0  0  0  0  0  0
    2.6808   -0.7270   -0.3867 P   0  0  2  0  0  0  0  0  0  0  0  0
    3.5477   -2.2601   -0.6674 C   0  0  0  0  0  0  0  0  0  0  0  0
    1.7013   -0.2189   -1.4087 O   0  0  0  0  0  0  0  0  0  0  0  0
    0.9441   -1.9064    0.6914 S   0  0  0  0  0  0  0  0  0  0  0  0
   -0.4707   -1.7668   -0.4409 C   0  0  0  0  0  0  0  0  0  0  0  0
   -1.0753   -0.3571   -0.3976 C   0  0  0  0  0  0  0  0  0  0  0  0
   -2.4077   -0.2018   -1.1606 N   0  0  1  0  0  0  0  0  0  0  0  0
   -2.3824   -0.7716   -2.5974 C   0  0  1  0  0  0  0  0  0  0  0  0
   -3.7157   -0.5446   -3.3119 C   0  0  0  0  0  0  0  0  0  0  0  0
   -1.2781   -0.0803   -3.4023 C   0  0  0  0  0  0  0  0  0  0  0  0
   -3.6752   -0.4938   -0.3382 C   0  0  1  0  0  0  0  0  0  0  0  0
   -3.7895   -1.9545    0.0658 C   0  0  0  0  0  0  0  0  0  0  0  0
   -3.7708    0.4430    0.8673 C   0  0  0  0  0  0  0  0  0  0  0  0
    5.2399    2.5480    0.6470 H   0  0  0  0  0  0  0  0  0  0  0  0
    5.0109    1.2326   -0.5130 H   0  0  0  0  0  0  0  0  0  0  0  0
    5.5201    0.8583    1.1322 H   0  0  0  0  0  0  0  0  0  0  0  0
    2.7859    1.9914    0.2994 H   0  0  0  0  0  0  0  0  0  0  0  0
    3.3206    1.8035    1.9669 H   0  0  0  0  0  0  0  0  0  0  0  0
    3.8016   -2.7402    0.2814 H   0  0  0  0  0  0  0  0  0  0  0  0
    2.9244   -2.9503   -1.2432 H   0  0  0  0  0  0  0  0  0  0  0  0
    4.4721   -2.0990   -1.2257 H   0  0  0  0  0  0  0  0  0  0  0  0
   -1.1929   -2.5244   -0.1369 H   0  0  0  0  0  0  0  0  0  0  0  0
   -0.1301   -2.0322   -1.4443 H   0  0  0  0  0  0  0  0  0  0  0  0
   -1.2540   -0.0377    0.6306 H   0  0  0  0  0  0  0  0  0  0  0  0
   -0.4062    0.3880   -0.8371 H   0  0  0  0  0  0  0  0  0  0  0  0
   -2.4666    0.8147   -1.3132 H   0  0  0  0  0  0  0  0  0  0  0  0
   -2.1899   -1.8459   -2.5194 H   0  0  0  0  0  0  0  0  0  0  0  0
   -3.6350   -0.8079   -4.3719 H   0  0  0  0  0  0  0  0  0  0  0  0
   -4.5071   -1.1783   -2.8998 H   0  0  0  0  0  0  0  0  0  0  0  0
   -4.0336    0.5023   -3.2528 H   0  0  0  0  0  0  0  0  0  0  0  0
   -1.3010   -0.4051   -4.4480 H   0  0  0  0  0  0  0  0  0  0  0  0
   -0.2823   -0.3209   -3.0261 H   0  0  0  0  0  0  0  0  0  0  0  0
   -1.3946    1.0086   -3.3877 H   0  0  0  0  0  0  0  0  0  0  0  0
   -4.5186   -0.2315   -0.9822 H   0  0  0  0  0  0  0  0  0  0  0  0
   -3.6382   -2.6287   -0.7819 H   0  0  0  0  0  0  0  0  0  0  0  0
   -4.7918   -2.1514    0.4630 H   0  0  0  0  0  0  0  0  0  0  0  0
   -3.0823   -2.2145    0.8586 H   0  0  0  0  0  0  0  0  0  0  0  0
   -3.5801    1.4823    0.5814 H   0  0  0  0  0  0  0  0  0  0  0  0
   -3.0806    0.1667    1.6689 H   0  0  0  0  0  0  0  0  0  0  0  0
   -4.7802    0.3996    1.2926 H   0  0  0  0  0  0  0  0  0  0  0  0
  1  2  1  0
  2  3  1  0
  4  3  1  1
  4  5  1  0
  4  6  2  0
  4  7  1  0
  7  8  1  0
  8  9  1  0
  9 10  1  0
 10 11  1  0
 11 12  1  0
 11 13  1  0
 10 14  1  0
 14 15  1  0
 14 16  1  0
  1 17  1  0
  1 18  1  0
  1 19  1  0
  2 20  1  0
  2 21  1  0
  5 22  1  0
  5 23  1  0
  5 24  1  0
  8 25  1  0
  8 26  1  0
  9 27  1  0
  9 28  1  0
 10 29  1  1
 11 30  1  6
 12 31  1  0
 12 32  1  0
 12 33  1  0
 13 34  1  0
 13 35  1  0
 13 36  1  0
 14 37  1  6
 15 38  1  0
 15 39  1  0
 15 40  1  0
 16 41  1  0
 16 42  1  0
 16 43  1  0
M  CHG  1  10   1
M  END
$$$$
