VX
     RDKit          3D

 43 42  0  0  0  0  0  0  0  0999 V2000
    3.2545    0.2406    3.3437 C   0  0  0  0  0  0  0  0  0  0  0  0
    3.5293   -0.5936    2.1097 C   0  0  0  0  0  0  0  0  0  0  0  0
    2.9872    0.0736    0.9828 O   0  0  0  0  0  0  0  0  0  0  0  0
    2.6911   -0.7383   -0.3823 P   0  0  2  0  0  0  0  0  0  0  0  0
    3.5471   -2.2737   -0.6832 C   0  0  0  0  0  0  0  0  0  0  0  0
    1.7088   -0.2150   -1.3924 O   0  0  0  0  0  0  0  0  0  0  0  0
    0.9544   -1.9177    0.6958 S   0  0  0  0  0  0  0  0  0  0  0  0
   -0.4308   -0.7552    0.5093 C   0  0  0  0  0  0  0  0  0  0  0  0
   -1.6991   -1.3255    1.1405 C   0  0  0  0  0  0  0  0  0  0  0  0
   -2.9740   -0.4979    0.8805 N   0  0  1  0  0  0  0  0  0  0  0  0
   -2.8282    0.9849    1.2531 C   0  0  1  0  0  0  0  0  0  0  0  0
   -2.4977    1.8932    0.0798 C   0  0  0  0  0  0  0  0  0  0  0  0
   -4.0532    1.4744    2.0274 C   0  0  0  0  0  0  0  0  0  0  0  0
   -3.7693   -0.9758   -0.3433 C   0  0  2  0  0  0  0  0  0  0  0  0
   -3.0338   -0.8370   -1.6689 C   0  0  0  0  0  0  0  0  0  0  0  0
   -5.1653   -0.3669   -0.3903 C   0  0  0  0  0  0  0  0  0  0  0  0
    2.1771    0.3792    3.4824 H   0  0  0  0  0  0  0  0  0  0  0  0
    3.6670   -0.2362    4.2372 H   0  0  0  0  0  0  0  0  0  0  0  0
    3.6933    1.2386    3.2409 H   0  0  0  0  0  0  0  0  0  0  0  0
    4.6081   -0.7090    1.9683 H   0  0  0  0  0  0  0  0  0  0  0  0
    3.0793   -1.5844    2.2204 H   0  0  0  0  0  0  0  0  0  0  0  0
    2.9610   -2.9082   -1.3544 H   0  0  0  0  0  0  0  0  0  0  0  0
    4.5165   -2.0848   -1.1526 H   0  0  0  0  0  0  0  0  0  0  0  0
    3.7139   -2.8287    0.2438 H   0  0  0  0  0  0  0  0  0  0  0  0
   -0.5637   -0.5585   -0.5543 H   0  0  0  0  0  0  0  0  0  0  0  0
   -0.1377    0.1814    0.9916 H   0  0  0  0  0  0  0  0  0  0  0  0
   -1.5952   -1.3630    2.2321 H   0  0  0  0  0  0  0  0  0  0  0  0
   -1.9116   -2.3429    0.7930 H   0  0  0  0  0  0  0  0  0  0  0  0
   -3.5748   -0.8497    1.6378 H   0  0  0  0  0  0  0  0  0  0  0  0
   -1.9955    1.0236    1.9655 H   0  0  0  0  0  0  0  0  0  0  0  0
   -3.3280    1.9835   -0.6246 H   0  0  0  0  0  0  0  0  0  0  0  0
   -2.2842    2.9051    0.4433 H   0  0  0  0  0  0  0  0  0  0  0  0
   -1.6104    1.5607   -0.4635 H   0  0  0  0  0  0  0  0  0  0  0  0
   -3.8410    2.4498    2.4803 H   0  0  0  0  0  0  0  0  0  0  0  0
   -4.3145    0.7893    2.8408 H   0  0  0  0  0  0  0  0  0  0  0  0
   -4.9304    1.6080    1.3913 H   0  0  0  0  0  0  0  0  0  0  0  0
   -3.9141   -2.0497   -0.1651 H   0  0  0  0  0  0  0  0  0  0  0  0
   -3.6748   -1.1827   -2.4886 H   0  0  0  0  0  0  0  0  0  0  0  0
   -2.1407   -1.4662   -1.6987 H   0  0  0  0  0  0  0  0  0  0  0  0
   -2.7498    0.1891   -1.9027 H   0  0  0  0  0  0  0  0  0  0  0  0
   -5.6827   -0.4826    0.5674 H   0  0  0  0  0  0  0  0  0  0  0  0
   -5.1501    0.6906   -0.6638 H   0  0  0  0  0  0  0  0  0  0  0  0
   -5.7724   -0.8795   -1.1454 H   0  0  0  0  0  0  0  0  0  0  0  0
  1  2  1  0
  2  3  1  0
  4  3  1  1
  4  5  1  0
  4  6  2  0
  4  7  1  0
  7  8  1  0
  8  9  1  0
  9 10  1  0
 10 11  1  0
 11 12  1  0
 11 13  1  0
 10 14  1  0
 14 15  1  0
 14 16  1  0
  1 17  1  0
  1 18  1  0
  1 19  1  0
  2 20  1  0
  2 21  1  0
  5 22  1  0
  5 23  1  0
  5 24  1  0
  8 25  1  0
  8 26  1  0
  9 27  1  0
  9 28  1  0
 10 29  1  6
 11 30  1  6
 12 31  1  0
 12 32  1  0
 12 33  1  0
 13 34  1  0
 13 35  1  0
 13 36  1  0
 14 37  1  6
 15 38  1  0
 15 39  1  0
 15 40  1  0
 16 41  1  0
 16 42  1  0
 16 43  1  0
M  CHG  1  10   1
M  END
$$$$
