VX
     RDKit          3D

 43 42  0  0  0  0  0  0  0  0999 V2000
    3.9385    1.8204    2.2943 C   0  0  0  0  0  0  0  0  0  0  0  0
    3.8790    1.1754    0.9250 C   0  0  0  0  0  0  0  0  0  0  0  0
    2.9934    0.0672    0.9857 O   0  0  0  0  0  0  0  0  0  0  0  0
    2.6874   -0.7348   -0.3846 P   0  0  2  0  0  0  0  0  0  0  0  0
    3.5467   -2.2685   -0.6783 C   0  0  0  0  0  0  0  0  0  0  0  0
    1.7068   -0.2172   -1.3980 O   0  0  0  0  0  0  0  0  0  0  0  0
    0.9506   -1.9142    0.6935 S   0  0  0  0  0  0  0  0  0  0  0  0
   -0.3227   -0.6324    0.8455 C   0  0  0  0  0  0  0  0  0  0  0  0
   -1.6420   -1.2499    1.3005 C   0  0  0  0  0  0  0  0  0  0  0  0
   -2.8187   -0.2536    1.2722 N   0  0  1  0  0  0  0  0  0  0  0  0
   -2.6777    0.7849    2.4067 C   0  0  1  0  0  0  0  0  0  0  0  0
   -2.1435    2.1321    1.9335 C   0  0  0  0  0  0  0  0  0  0  0  0
   -3.9926    0.9044    3.1746 C   0  0  0  0  0  0  0  0  0  0  0  0
   -3.2124    0.2553   -0.1336 C   0  0  2  0  0  0  0  0  0  0  0  0
   -4.6141    0.8675   -0.1010 C   0  0  0  0  0  0  0  0  0  0  0  0
   -3.2241   -0.8944   -1.1476 C   0  0  0  0  0  0  0  0  0  0  0  0
    2.9438    2.1570    2.6048 H   0  0  0  0  0  0  0  0  0  0  0  0
    4.2799    1.1008    3.0459 H   0  0  0  0  0  0  0  0  0  0  0  0
    4.6165    2.6783    2.2925 H   0  0  0  0  0  0  0  0  0  0  0  0
    4.8742    0.8328    0.6282 H   0  0  0  0  0  0  0  0  0  0  0  0
    3.5143    1.8966    0.1873 H   0  0  0  0  0  0  0  0  0  0  0  0
    3.7780   -2.7704    0.2655 H   0  0  0  0  0  0  0  0  0  0  0  0
    2.9307   -2.9407   -1.2825 H   0  0  0  0  0  0  0  0  0  0  0  0
    4.4833   -2.0968   -1.2151 H   0  0  0  0  0  0  0  0  0  0  0  0
   -0.4328   -0.1406   -0.1236 H   0  0  0  0  0  0  0  0  0  0  0  0
    0.0341    0.1085    1.5658 H   0  0  0  0  0  0  0  0  0  0  0  0
   -1.5752   -1.6188    2.3316 H   0  0  0  0  0  0  0  0  0  0  0  0
   -1.9404   -2.1063    0.6874 H   0  0  0  0  0  0  0  0  0  0  0  0
   -3.6127   -0.8462    1.5501 H   0  0  0  0  0  0  0  0  0  0  0  0
   -1.9484    0.3670    3.1111 H   0  0  0  0  0  0  0  0  0  0  0  0
   -2.8658    2.6840    1.3274 H   0  0  0  0  0  0  0  0  0  0  0  0
   -1.2221    2.0280    1.3543 H   0  0  0  0  0  0  0  0  0  0  0  0
   -1.9115    2.7636    2.7989 H   0  0  0  0  0  0  0  0  0  0  0  0
   -3.8523    1.5286    4.0639 H   0  0  0  0  0  0  0  0  0  0  0  0
   -4.7904    1.3591    2.5846 H   0  0  0  0  0  0  0  0  0  0  0  0
   -4.3387   -0.0769    3.5164 H   0  0  0  0  0  0  0  0  0  0  0  0
   -2.4705    1.0000   -0.4370 H   0  0  0  0  0  0  0  0  0  0  0  0
   -4.9505    1.1135   -1.1146 H   0  0  0  0  0  0  0  0  0  0  0  0
   -4.6468    1.8013    0.4621 H   0  0  0  0  0  0  0  0  0  0  0  0
   -5.3447    0.1759    0.3319 H   0  0  0  0  0  0  0  0  0  0  0  0
   -2.2180   -1.2748   -1.3466 H   0  0  0  0  0  0  0  0  0  0  0  0
   -3.6178   -0.5537   -2.1121 H   0  0  0  0  0  0  0  0  0  0  0  0
   -3.8515   -1.7251   -0.8064 H   0  0  0  0  0  0  0  0  0  0  0  0
  1  2  1  0
  2  3  1  0
  4  3  1  1
  4  5  1  0
  4  6  2  0
  4  7  1  0
  7  8  1  0
  8  9  1  0
  9 10  1  0
 10 11  1  0
 11 12  1  0
 11 13  1  0
 10 14  1  0
 14 15  1  0
 14 16  1  0
  1 17  1  0
  1 18  1  0
  1 19  1  0
  2 20  1  0
  2 21  1  0
  5 22  1  0
  5 23  1  0
  5 24  1  0
  8 25  1  0
  8 26  1  0
  9 27  1  0
  9 28  1  0
 10 29  1  6
 11 30  1  6
 12 31  1  0
 12 32  1  0
 12 33  1  0
 13 34  1  0
 13 35  1  0
 13 36  1  0
 14 37  1  1
 15 38  1  0
 15 39  1  0
 15 40  1  0
 16 41  1  0
 16 42  1  0
 16 43  1  0
M  CHG  1  10   1
M  END
$$$$
