VX
     RDKit          3D

 43 42  0  0  0  0  0  0  0  0999 V2000
    3.9771    1.7843    2.3100 C   0  0  0  0  0  0  0  0  0  0  0  0
    3.8428    1.2019    0.9183 C   0  0  0  0  0  0  0  0  0  0  0  0
    2.9910    0.0678    0.9826 O   0  0  0  0  0  0  0  0  0  0  0  0
    2.6894   -0.7363   -0.3830 P   0  0  2  0  0  0  0  0  0  0  0  0
    3.5462   -2.2686   -0.6791 C   0  0  0  0  0  0  0  0  0  0  0  0
    1.7075   -0.2162   -1.3957 O   0  0  0  0  0  0  0  0  0  0  0  0
    0.9527   -1.9157    0.6951 S   0  0  0  0  0  0  0  0  0  0  0  0
   -0.1572   -0.5617    1.2024 C   0  0  0  0  0  0  0  0  0  0  0  0
   -1.6026   -0.8235    0.7659 C   0  0  0  0  0  0  0  0  0  0  0  0
   -1.7104   -1.2333   -0.7169 N   0  0  1  0  0  0  0  0  0  0  0  0
   -2.8082   -2.2812   -0.9206 C   0  0  1  0  0  0  0  0  0  0  0  0
   -4.2009   -1.7880   -0.5374 C   0  0  0  0  0  0  0  0  0  0  0  0
   -2.7819   -2.8932   -2.3131 C   0  0  0  0  0  0  0  0  0  0  0  0
   -1.5332   -0.0424   -1.6692 C   0  0  2  0  0  0  0  0  0  0  0  0
   -2.8083    0.7606   -1.8725 C   0  0  0  0  0  0  0  0  0  0  0  0
   -0.9070   -0.4691   -2.9952 C   0  0  0  0  0  0  0  0  0  0  0  0
    4.6249    2.6653    2.3039 H   0  0  0  0  0  0  0  0  0  0  0  0
    4.3948    1.0430    2.9992 H   0  0  0  0  0  0  0  0  0  0  0  0
    2.9964    2.0694    2.7051 H   0  0  0  0  0  0  0  0  0  0  0  0
    3.4091    1.9435    0.2404 H   0  0  0  0  0  0  0  0  0  0  0  0
    4.8247    0.9042    0.5396 H   0  0  0  0  0  0  0  0  0  0  0  0
    4.4753   -2.0993   -1.2296 H   0  0  0  0  0  0  0  0  0  0  0  0
    3.7915   -2.7642    0.2645 H   0  0  0  0  0  0  0  0  0  0  0  0
    2.9235   -2.9464   -1.2701 H   0  0  0  0  0  0  0  0  0  0  0  0
   -0.1120   -0.4653    2.2918 H   0  0  0  0  0  0  0  0  0  0  0  0
    0.2034    0.3819    0.7841 H   0  0  0  0  0  0  0  0  0  0  0  0
   -2.0070   -1.6482    1.3642 H   0  0  0  0  0  0  0  0  0  0  0  0
   -2.2348    0.0562    0.9197 H   0  0  0  0  0  0  0  0  0  0  0  0
   -0.8422   -1.7768   -0.8511 H   0  0  0  0  0  0  0  0  0  0  0  0
   -2.5386   -3.0865   -0.2243 H   0  0  0  0  0  0  0  0  0  0  0  0
   -4.8840   -2.6426   -0.4641 H   0  0  0  0  0  0  0  0  0  0  0  0
   -4.2162   -1.2848    0.4331 H   0  0  0  0  0  0  0  0  0  0  0  0
   -4.6307   -1.1151   -1.2816 H   0  0  0  0  0  0  0  0  0  0  0  0
   -3.1969   -2.2169   -3.0650 H   0  0  0  0  0  0  0  0  0  0  0  0
   -1.7690   -3.1856   -2.6063 H   0  0  0  0  0  0  0  0  0  0  0  0
   -3.3991   -3.7989   -2.3337 H   0  0  0  0  0  0  0  0  0  0  0  0
   -0.8056    0.6111   -1.1774 H   0  0  0  0  0  0  0  0  0  0  0  0
   -3.5169    0.2433   -2.5249 H   0  0  0  0  0  0  0  0  0  0  0  0
   -3.3011    0.9985   -0.9257 H   0  0  0  0  0  0  0  0  0  0  0  0
   -2.5726    1.7126   -2.3625 H   0  0  0  0  0  0  0  0  0  0  0  0
   -1.6403   -0.8724   -3.6970 H   0  0  0  0  0  0  0  0  0  0  0  0
   -0.4589    0.4018   -3.4877 H   0  0  0  0  0  0  0  0  0  0  0  0
   -0.1162   -1.2123   -2.8579 H   0  0  0  0  0  0  0  0  0  0  0  0
  1  2  1  0
  2  3  1  0
  4  3  1  1
  4  5  1  0
  4  6  2  0
  4  7  1  0
  7  8  1  0
  8  9  1  0
  9 10  1  0
 10 11  1  0
 11 12  1  0
 11 13  1  0
 10 14  1  0
 14 15  1  0
 14 16  1  0
  1 17  1  0
  1 18  1  0
  1 19  1  0
  2 20  1  0
  2 21  1  0
  5 22  1  0
  5 23  1  0
  5 24  1  0
  8 25  1  0
  8 26  1  0
  9 27  1  0
  9 28  1  0
 10 29  1  1
 11 30  1  6
 12 31  1  0
 12 32  1  0
 12 33  1  0
 13 34  1  0
 13 35  1  0
 13 36  1  0
 14 37  1  6
 15 38  1  0
 15 39  1  0
 15 40  1  0
 16 41  1  0
 16 42  1  0
 16 43  1  0
M  CHG  1  10   1
M  END
$$$$
