VX
     RDKit          3D

 43 42  0  0  0  0  0  0  0  0999 V2000
    4.0180    1.7595    2.3129 C   0  0  0  0  0  0  0  0  0  0  0  0
    3.8354    1.2069    0.9147 C   0  0  0  0  0  0  0  0  0  0  0  0
    2.9960    0.0637    0.9860 O   0  0  0  0  0  0  0  0  0  0  0  0
    2.6856   -0.7328   -0.3852 P   0  0  2  0  0  0  0  0  0  0  0  0
    3.5468   -2.2664   -0.6757 C   0  0  0  0  0  0  0  0  0  0  0  0
    1.7058   -0.2178   -1.4002 O   0  0  0  0  0  0  0  0  0  0  0  0
    0.9489   -1.9122    0.6929 S   0  0  0  0  0  0  0  0  0  0  0  0
   -0.1845   -0.5640    1.1514 C   0  0  0  0  0  0  0  0  0  0  0  0
   -1.5762   -1.0525    1.5620 C   0  0  0  0  0  0  0  0  0  0  0  0
   -2.6199   -1.2019    0.4473 N   0  0  2  0  0  0  0  0  0  0  0  0
   -2.2431   -2.1413   -0.7074 C   0  0  2  0  0  0  0  0  0  0  0  0
   -1.6458   -1.4112   -1.9030 C   0  0  0  0  0  0  0  0  0  0  0  0
   -3.4806   -2.9444   -1.1228 C   0  0  0  0  0  0  0  0  0  0  0  0
   -3.4453    0.0418    0.0825 C   0  0  2  0  0  0  0  0  0  0  0  0
   -2.6007    1.2948   -0.1047 C   0  0  0  0  0  0  0  0  0  0  0  0
   -4.5197    0.2593    1.1514 C   0  0  0  0  0  0  0  0  0  0  0  0
    3.0509    2.0272    2.7513 H   0  0  0  0  0  0  0  0  0  0  0  0
    4.6581    2.6462    2.3019 H   0  0  0  0  0  0  0  0  0  0  0  0
    4.4675    1.0071    2.9692 H   0  0  0  0  0  0  0  0  0  0  0  0
    4.8045    0.9280    0.4916 H   0  0  0  0  0  0  0  0  0  0  0  0
    3.3687    1.9593    0.2716 H   0  0  0  0  0  0  0  0  0  0  0  0
    2.9322   -2.9402   -1.2795 H   0  0  0  0  0  0  0  0  0  0  0  0
    3.7774   -2.7664    0.2692 H   0  0  0  0  0  0  0  0  0  0  0  0
    4.4843   -2.0948   -1.2111 H   0  0  0  0  0  0  0  0  0  0  0  0
    0.2766   -0.0640    2.0101 H   0  0  0  0  0  0  0  0  0  0  0  0
   -0.2223    0.1667    0.3441 H   0  0  0  0  0  0  0  0  0  0  0  0
   -1.5293   -2.0256    2.0661 H   0  0  0  0  0  0  0  0  0  0  0  0
   -2.0076   -0.3505    2.2827 H   0  0  0  0  0  0  0  0  0  0  0  0
   -3.3140   -1.7772    0.9405 H   0  0  0  0  0  0  0  0  0  0  0  0
   -1.5254   -2.8582   -0.3001 H   0  0  0  0  0  0  0  0  0  0  0  0
   -1.2927   -2.1374   -2.6441 H   0  0  0  0  0  0  0  0  0  0  0  0
   -0.7911   -0.7920   -1.6304 H   0  0  0  0  0  0  0  0  0  0  0  0
   -2.3796   -0.7748   -2.4076 H   0  0  0  0  0  0  0  0  0  0  0  0
   -3.8964   -3.4965   -0.2730 H   0  0  0  0  0  0  0  0  0  0  0  0
   -3.2162   -3.6781   -1.8922 H   0  0  0  0  0  0  0  0  0  0  0  0
   -4.2700   -2.3067   -1.5322 H   0  0  0  0  0  0  0  0  0  0  0  0
   -3.9619   -0.1856   -0.8550 H   0  0  0  0  0  0  0  0  0  0  0  0
   -3.2379    2.1307   -0.4162 H   0  0  0  0  0  0  0  0  0  0  0  0
   -1.8446    1.1693   -0.8828 H   0  0  0  0  0  0  0  0  0  0  0  0
   -2.1057    1.6021    0.8216 H   0  0  0  0  0  0  0  0  0  0  0  0
   -5.1493   -0.6298    1.2652 H   0  0  0  0  0  0  0  0  0  0  0  0
   -5.1752    1.0902    0.8681 H   0  0  0  0  0  0  0  0  0  0  0  0
   -4.0874    0.4987    2.1278 H   0  0  0  0  0  0  0  0  0  0  0  0
  1  2  1  0
  2  3  1  0
  4  3  1  1
  4  5  1  0
  4  6  2  0
  4  7  1  0
  7  8  1  0
  8  9  1  0
  9 10  1  0
 10 11  1  0
 11 12  1  0
 11 13  1  0
 10 14  1  0
 14 15  1  0
 14 16  1  0
  1 17  1  0
  1 18  1  0
  1 19  1  0
  2 20  1  0
  2 21  1  0
  5 22  1  0
  5 23  1  0
  5 24  1  0
  8 25  1  0
  8 26  1  0
  9 27  1  0
  9 28  1  0
 10 29  1  1
 11 30  1  1
 12 31  1  0
 12 32  1  0
 12 33  1  0
 13 34  1  0
 13 35  1  0
 13 36  1  0
 14 37  1  1
 15 38  1  0
 15 39  1  0
 15 40  1  0
 16 41  1  0
 16 42  1  0
 16 43  1  0
M  CHG  1  10   1
M  END
$$$$
