VX
     RDKit          3D

 43 42  0  0  0  0  0  0  0  0999 V2000
    4.8874    1.5212    0.5402 C   0  0  0  0  0  0  0  0  0  0  0  0
    3.4313    1.4114    0.9409 C   0  0  0  0  0  0  0  0  0  0  0  0
    2.9993    0.0598    0.9873 O   0  0  0  0  0  0  0  0  0  0  0  0
    2.6837   -0.7308   -0.3861 P   0  0  2  0  0  0  0  0  0  0  0  0
    3.5469   -2.2639   -0.6728 C   0  0  0  0  0  0  0  0  0  0  0  0
    1.7043   -0.2186   -1.4035 O   0  0  0  0  0  0  0  0  0  0  0  0
    0.9470   -1.9102    0.6920 S   0  0  0  0  0  0  0  0  0  0  0  0
   -0.4073   -0.7058    0.6418 C   0  0  0  0  0  0  0  0  0  0  0  0
   -1.6747   -1.2999    1.2530 C   0  0  0  0  0  0  0  0  0  0  0  0
   -2.9112   -0.4198    1.0002 N   0  0  2  0  0  0  0  0  0  0  0  0
   -2.9771    0.9364    1.7251 C   0  0  1  0  0  0  0  0  0  0  0  0
   -2.3000    0.9274    3.0916 C   0  0  0  0  0  0  0  0  0  0  0  0
   -2.4220    2.0293    0.8134 C   0  0  0  0  0  0  0  0  0  0  0  0
   -4.2053   -1.2554    1.0711 C   0  0  2  0  0  0  0  0  0  0  0  0
   -5.3198   -0.5655    0.2849 C   0  0  0  0  0  0  0  0  0  0  0  0
   -4.6071   -1.5652    2.5071 C   0  0  0  0  0  0  0  0  0  0  0  0
    5.0259    1.2313   -0.5053 H   0  0  0  0  0  0  0  0  0  0  0  0
    5.5110    0.8590    1.1488 H   0  0  0  0  0  0  0  0  0  0  0  0
    5.2427    2.5494    0.6548 H   0  0  0  0  0  0  0  0  0  0  0  0
    3.3006    1.8237    1.9465 H   0  0  0  0  0  0  0  0  0  0  0  0
    2.7904    1.9907    0.2688 H   0  0  0  0  0  0  0  0  0  0  0  0
    3.7703   -2.7638    0.2741 H   0  0  0  0  0  0  0  0  0  0  0  0
    4.4878   -2.1024   -1.2030 H   0  0  0  0  0  0  0  0  0  0  0  0
    2.9330   -2.9373   -1.2778 H   0  0  0  0  0  0  0  0  0  0  0  0
   -0.5858   -0.4278   -0.4014 H   0  0  0  0  0  0  0  0  0  0  0  0
   -0.0781    0.1829    1.1832 H   0  0  0  0  0  0  0  0  0  0  0  0
   -1.8862   -2.2619    0.7721 H   0  0  0  0  0  0  0  0  0  0  0  0
   -1.5891   -1.4681    2.3305 H   0  0  0  0  0  0  0  0  0  0  0  0
   -2.8472   -0.1912   -0.0015 H   0  0  0  0  0  0  0  0  0  0  0  0
   -4.0360    1.1615    1.8795 H   0  0  0  0  0  0  0  0  0  0  0  0
   -2.4950    1.8737    3.6090 H   0  0  0  0  0  0  0  0  0  0  0  0
   -2.6817    0.1270    3.7313 H   0  0  0  0  0  0  0  0  0  0  0  0
   -1.2139    0.8247    3.0213 H   0  0  0  0  0  0  0  0  0  0  0  0
   -1.3536    1.9117    0.6188 H   0  0  0  0  0  0  0  0  0  0  0  0
   -2.5636    3.0135    1.2734 H   0  0  0  0  0  0  0  0  0  0  0  0
   -2.9441    2.0400   -0.1495 H   0  0  0  0  0  0  0  0  0  0  0  0
   -3.9837   -2.1950    0.5512 H   0  0  0  0  0  0  0  0  0  0  0  0
   -4.9914   -0.3155   -0.7294 H   0  0  0  0  0  0  0  0  0  0  0  0
   -6.1840   -1.2333    0.1962 H   0  0  0  0  0  0  0  0  0  0  0  0
   -5.6708    0.3514    0.7665 H   0  0  0  0  0  0  0  0  0  0  0  0
   -4.9043   -0.6671    3.0567 H   0  0  0  0  0  0  0  0  0  0  0  0
   -3.7967   -2.0548    3.0555 H   0  0  0  0  0  0  0  0  0  0  0  0
   -5.4648   -2.2469    2.5174 H   0  0  0  0  0  0  0  0  0  0  0  0
  1  2  1  0
  2  3  1  0
  4  3  1  1
  4  5  1  0
  4  6  2  0
  4  7  1  0
  7  8  1  0
  8  9  1  0
  9 10  1  0
 10 11  1  0
 11 12  1  0
 11 13  1  0
 10 14  1  0
 14 15  1  0
 14 16  1  0
  1 17  1  0
  1 18  1  0
  1 19  1  0
  2 20  1  0
  2 21  1  0
  5 22  1  0
  5 23  1  0
  5 24  1  0
  8 25  1  0
  8 26  1  0
  9 27  1  0
  9 28  1  0
 10 29  1  6
 11 30  1  6
 12 31  1  0
 12 32  1  0
 12 33  1  0
 13 34  1  0
 13 35  1  0
 13 36  1  0
 14 37  1  1
 15 38  1  0
 15 39  1  0
 15 40  1  0
 16 41  1  0
 16 42  1  0
 16 43  1  0
M  CHG  1  10   1
M  END
$$$$
