VX
     RDKit          3D

 43 42  0  0  0  0  0  0  0  0999 V2000
    3.8636    1.8891    2.2524 C   0  0  0  0  0  0  0  0  0  0  0  0
    3.9224    1.1401    0.9371 C   0  0  0  0  0  0  0  0  0  0  0  0
    2.9926    0.0680    0.9853 O   0  0  0  0  0  0  0  0  0  0  0  0
    2.6879   -0.7353   -0.3843 P   0  0  2  0  0  0  0  0  0  0  0  0
    3.5466   -2.2690   -0.6789 C   0  0  0  0  0  0  0  0  0  0  0  0
    1.7072   -0.2171   -1.3972 O   0  0  0  0  0  0  0  0  0  0  0  0
    0.9511   -1.9147    0.6937 S   0  0  0  0  0  0  0  0  0  0  0  0
   -0.3267   -0.6381    0.8416 C   0  0  0  0  0  0  0  0  0  0  0  0
   -1.6530   -1.2591    1.2857 C   0  0  0  0  0  0  0  0  0  0  0  0
   -2.8087   -0.2493    1.2092 N   0  0  2  0  0  0  0  0  0  0  0  0
   -2.7205    0.8774    2.2498 C   0  0  1  0  0  0  0  0  0  0  0  0
   -3.4570    2.1137    1.7331 C   0  0  0  0  0  0  0  0  0  0  0  0
   -3.2128    0.4490    3.6251 C   0  0  0  0  0  0  0  0  0  0  0  0
   -4.1988   -0.8928    1.0376 C   0  0  2  0  0  0  0  0  0  0  0  0
   -4.3791   -2.1582    1.8738 C   0  0  0  0  0  0  0  0  0  0  0  0
   -4.4264   -1.1748   -0.4481 C   0  0  0  0  0  0  0  0  0  0  0  0
    2.8556    2.2791    2.4274 H   0  0  0  0  0  0  0  0  0  0  0  0
    4.0974    1.2206    3.0875 H   0  0  0  0  0  0  0  0  0  0  0  0
    4.5717    2.7229    2.2595 H   0  0  0  0  0  0  0  0  0  0  0  0
    4.9275    0.7392    0.7787 H   0  0  0  0  0  0  0  0  0  0  0  0
    3.6728    1.8132    0.1115 H   0  0  0  0  0  0  0  0  0  0  0  0
    4.4759   -2.0985   -1.2282 H   0  0  0  0  0  0  0  0  0  0  0  0
    2.9251   -2.9459   -1.2716 H   0  0  0  0  0  0  0  0  0  0  0  0
    3.7905   -2.7652    0.2645 H   0  0  0  0  0  0  0  0  0  0  0  0
    0.0307    0.1088    1.5551 H   0  0  0  0  0  0  0  0  0  0  0  0
   -0.4501   -0.1490   -0.1300 H   0  0  0  0  0  0  0  0  0  0  0  0
   -1.9117   -2.0757    0.6041 H   0  0  0  0  0  0  0  0  0  0  0  0
   -1.6116   -1.6395    2.3111 H   0  0  0  0  0  0  0  0  0  0  0  0
   -2.6503    0.2354    0.3149 H   0  0  0  0  0  0  0  0  0  0  0  0
   -1.6626    1.1443    2.3249 H   0  0  0  0  0  0  0  0  0  0  0  0
   -3.0852    2.4071    0.7459 H   0  0  0  0  0  0  0  0  0  0  0  0
   -3.2942    2.9594    2.4108 H   0  0  0  0  0  0  0  0  0  0  0  0
   -4.5378    1.9601    1.6600 H   0  0  0  0  0  0  0  0  0  0  0  0
   -3.0173    1.2425    4.3554 H   0  0  0  0  0  0  0  0  0  0  0  0
   -2.6982   -0.4482    3.9802 H   0  0  0  0  0  0  0  0  0  0  0  0
   -4.2913    0.2652    3.6374 H   0  0  0  0  0  0  0  0  0  0  0  0
   -4.9363   -0.1498    1.3531 H   0  0  0  0  0  0  0  0  0  0  0  0
   -3.7565   -2.9855    1.5189 H   0  0  0  0  0  0  0  0  0  0  0  0
   -5.4197   -2.4970    1.8133 H   0  0  0  0  0  0  0  0  0  0  0  0
   -4.1555   -1.9951    2.9301 H   0  0  0  0  0  0  0  0  0  0  0  0
   -3.7066   -1.8985   -0.8439 H   0  0  0  0  0  0  0  0  0  0  0  0
   -4.3438   -0.2562   -1.0390 H   0  0  0  0  0  0  0  0  0  0  0  0
   -5.4306   -1.5812   -0.6099 H   0  0  0  0  0  0  0  0  0  0  0  0
  1  2  1  0
  2  3  1  0
  4  3  1  1
  4  5  1  0
  4  6  2  0
  4  7  1  0
  7  8  1  0
  8  9  1  0
  9 10  1  0
 10 11  1  0
 11 12  1  0
 11 13  1  0
 10 14  1  0
 14 15  1  0
 14 16  1  0
  1 17  1  0
  1 18  1  0
  1 19  1  0
  2 20  1  0
  2 21  1  0
  5 22  1  0
  5 23  1  0
  5 24  1  0
  8 25  1  0
  8 26  1  0
  9 27  1  0
  9 28  1  0
 10 29  1  6
 11 30  1  6
 12 31  1  0
 12 32  1  0
 12 33  1  0
 13 34  1  0
 13 35  1  0
 13 36  1  0
 14 37  1  6
 15 38  1  0
 15 39  1  0
 15 40  1  0
 16 41  1  0
 16 42  1  0
 16 43  1  0
M  CHG  1  10   1
M  END
$$$$
