VX
     RDKit          3D

 43 42  0  0  0  0  0  0  0  0999 V2000
    3.1800    1.9941    2.3797 C   0  0  0  0  0  0  0  0  0  0  0  0
    2.8217    1.4633    1.0089 C   0  0  0  0  0  0  0  0  0  0  0  0
    3.0073    0.0529    0.9926 O   0  0  0  0  0  0  0  0  0  0  0  0
    2.6787   -0.7256   -0.3885 P   0  0  2  0  0  0  0  0  0  0  0  0
    3.5488   -2.2612   -0.6669 C   0  0  0  0  0  0  0  0  0  0  0  0
    1.6994   -0.2195   -1.4124 O   0  0  0  0  0  0  0  0  0  0  0  0
    0.9420   -1.9050    0.6896 S   0  0  0  0  0  0  0  0  0  0  0  0
   -0.5402   -1.2035   -0.0835 C   0  0  0  0  0  0  0  0  0  0  0  0
   -1.8070   -1.7925    0.5344 C   0  0  0  0  0  0  0  0  0  0  0  0
   -3.0830   -1.0983    0.0216 N   0  0  1  0  0  0  0  0  0  0  0  0
   -3.4684   -1.3203   -1.4565 C   0  0  2  0  0  0  0  0  0  0  0  0
   -3.0524   -2.6870   -1.9958 C   0  0  0  0  0  0  0  0  0  0  0  0
   -2.9238   -0.1698   -2.3037 C   0  0  0  0  0  0  0  0  0  0  0  0
   -4.2427   -1.2687    1.0244 C   0  0  1  0  0  0  0  0  0  0  0  0
   -5.2712   -0.1529    0.8316 C   0  0  0  0  0  0  0  0  0  0  0  0
   -4.8639   -2.6557    0.9449 C   0  0  0  0  0  0  0  0  0  0  0  0
    3.0101    3.0775    2.4291 H   0  0  0  0  0  0  0  0  0  0  0  0
    4.2349    1.7908    2.6041 H   0  0  0  0  0  0  0  0  0  0  0  0
    2.5808    1.5004    3.1573 H   0  0  0  0  0  0  0  0  0  0  0  0
    1.7711    1.6871    0.7862 H   0  0  0  0  0  0  0  0  0  0  0  0
    3.4611    1.9294    0.2483 H   0  0  0  0  0  0  0  0  0  0  0  0
    4.5121   -2.0734   -1.1512 H   0  0  0  0  0  0  0  0  0  0  0  0
    2.9604   -2.9215   -1.3170 H   0  0  0  0  0  0  0  0  0  0  0  0
    3.7362   -2.7821    0.2760 H   0  0  0  0  0  0  0  0  0  0  0  0
   -0.5203   -0.1175    0.0502 H   0  0  0  0  0  0  0  0  0  0  0  0
   -0.4815   -1.4220   -1.1508 H   0  0  0  0  0  0  0  0  0  0  0  0
   -1.7849   -1.6257    1.6176 H   0  0  0  0  0  0  0  0  0  0  0  0
   -1.9093   -2.8669    0.3557 H   0  0  0  0  0  0  0  0  0  0  0  0
   -2.8656   -0.0933    0.0951 H   0  0  0  0  0  0  0  0  0  0  0  0
   -4.5596   -1.2604   -1.5127 H   0  0  0  0  0  0  0  0  0  0  0  0
   -3.4241   -3.5054   -1.3720 H   0  0  0  0  0  0  0  0  0  0  0  0
   -3.4710   -2.8332   -3.0004 H   0  0  0  0  0  0  0  0  0  0  0  0
   -1.9679   -2.7900   -2.0883 H   0  0  0  0  0  0  0  0  0  0  0  0
   -3.2535   -0.2802   -3.3485 H   0  0  0  0  0  0  0  0  0  0  0  0
   -1.8308   -0.1318   -2.3048 H   0  0  0  0  0  0  0  0  0  0  0  0
   -3.2976    0.7984   -1.9442 H   0  0  0  0  0  0  0  0  0  0  0  0
   -3.8030   -1.1300    2.0190 H   0  0  0  0  0  0  0  0  0  0  0  0
   -4.7949    0.8334    0.8419 H   0  0  0  0  0  0  0  0  0  0  0  0
   -6.0048   -0.1730    1.6482 H   0  0  0  0  0  0  0  0  0  0  0  0
   -5.8276   -0.2533   -0.1057 H   0  0  0  0  0  0  0  0  0  0  0  0
   -5.6062   -2.7819    1.7388 H   0  0  0  0  0  0  0  0  0  0  0  0
   -5.3805   -2.8239   -0.0021 H   0  0  0  0  0  0  0  0  0  0  0  0
   -4.1159   -3.4374    1.0758 H   0  0  0  0  0  0  0  0  0  0  0  0
  1  2  1  0
  2  3  1  0
  4  3  1  1
  4  5  1  0
  4  6  2  0
  4  7  1  0
  7  8  1  0
  8  9  1  0
  9 10  1  0
 10 11  1  0
 11 12  1  0
 11 13  1  0
 10 14  1  0
 14 15  1  0
 14 16  1  0
  1 17  1  0
  1 18  1  0
  1 19  1  0
  2 20  1  0
  2 21  1  0
  5 22  1  0
  5 23  1  0
  5 24  1  0
  8 25  1  0
  8 26  1  0
  9 27  1  0
  9 28  1  0
 10 29  1  1
 11 30  1  1
 12 31  1  0
 12 32  1  0
 12 33  1  0
 13 34  1  0
 13 35  1  0
 13 36  1  0
 14 37  1  1
 15 38  1  0
 15 39  1  0
 15 40  1  0
 16 41  1  0
 16 42  1  0
 16 43  1  0
M  CHG  1  10   1
M  END
$$$$
