VX
     RDKit          3D

 43 42  0  0  0  0  0  0  0  0999 V2000
    3.8662    1.9976    2.1078 C   0  0  0  0  0  0  0  0  0  0  0  0
    4.0715    0.9944    0.9907 C   0  0  0  0  0  0  0  0  0  0  0  0
    2.9783    0.0857    0.9817 O   0  0  0  0  0  0  0  0  0  0  0  0
    2.6968   -0.7456   -0.3812 P   0  0  2  0  0  0  0  0  0  0  0  0
    3.5447   -2.2785   -0.6923 C   0  0  0  0  0  0  0  0  0  0  0  0
    1.7144   -0.2149   -1.3833 O   0  0  0  0  0  0  0  0  0  0  0  0
    0.9601   -1.9250    0.6969 S   0  0  0  0  0  0  0  0  0  0  0  0
   -0.5743   -1.2990   -0.0647 C   0  0  0  0  0  0  0  0  0  0  0  0
   -0.7996    0.1979    0.1837 C   0  0  0  0  0  0  0  0  0  0  0  0
   -0.5556    0.5834    1.6518 N   0  0  1  0  0  0  0  0  0  0  0  0
    0.1254    1.9562    1.7655 C   0  0  1  0  0  0  0  0  0  0  0  0
   -0.8621    3.0907    1.5243 C   0  0  0  0  0  0  0  0  0  0  0  0
    0.8464    2.0768    3.1072 C   0  0  0  0  0  0  0  0  0  0  0  0
   -1.6908    0.3245    2.6536 C   0  0  2  0  0  0  0  0  0  0  0  0
   -1.4929   -1.0339    3.3218 C   0  0  0  0  0  0  0  0  0  0  0  0
   -3.0807    0.4473    2.0403 C   0  0  0  0  0  0  0  0  0  0  0  0
    4.7189    2.6801    2.1745 H   0  0  0  0  0  0  0  0  0  0  0  0
    3.7382    1.4916    3.0726 H   0  0  0  0  0  0  0  0  0  0  0  0
    2.9611    2.5883    1.9328 H   0  0  0  0  0  0  0  0  0  0  0  0
    4.9949    0.4320    1.1552 H   0  0  0  0  0  0  0  0  0  0  0  0
    4.1395    1.5178    0.0318 H   0  0  0  0  0  0  0  0  0  0  0  0
    2.9221   -2.9402   -1.3039 H   0  0  0  0  0  0  0  0  0  0  0  0
    4.4819   -2.1087   -1.2269 H   0  0  0  0  0  0  0  0  0  0  0  0
    3.7732   -2.7916    0.2449 H   0  0  0  0  0  0  0  0  0  0  0  0
   -0.5432   -1.4992   -1.1411 H   0  0  0  0  0  0  0  0  0  0  0  0
   -1.4096   -1.8780    0.3398 H   0  0  0  0  0  0  0  0  0  0  0  0
   -1.8031    0.5155   -0.1099 H   0  0  0  0  0  0  0  0  0  0  0  0
   -0.1056    0.7824   -0.4254 H   0  0  0  0  0  0  0  0  0  0  0  0
    0.1984   -0.0660    1.9286 H   0  0  0  0  0  0  0  0  0  0  0  0
    0.8944    1.9735    0.9838 H   0  0  0  0  0  0  0  0  0  0  0  0
   -1.6087    3.1661    2.3212 H   0  0  0  0  0  0  0  0  0  0  0  0
   -1.3866    2.9691    0.5715 H   0  0  0  0  0  0  0  0  0  0  0  0
   -0.3317    4.0484    1.4854 H   0  0  0  0  0  0  0  0  0  0  0  0
    1.4819    1.2061    3.2969 H   0  0  0  0  0  0  0  0  0  0  0  0
    0.1540    2.1821    3.9476 H   0  0  0  0  0  0  0  0  0  0  0  0
    1.4871    2.9650    3.1120 H   0  0  0  0  0  0  0  0  0  0  0  0
   -1.6051    1.0813    3.4369 H   0  0  0  0  0  0  0  0  0  0  0  0
   -2.2462   -1.1836    4.1052 H   0  0  0  0  0  0  0  0  0  0  0  0
   -0.5064   -1.1015    3.7948 H   0  0  0  0  0  0  0  0  0  0  0  0
   -1.5954   -1.8610    2.6134 H   0  0  0  0  0  0  0  0  0  0  0  0
   -3.2956   -0.3652    1.3383 H   0  0  0  0  0  0  0  0  0  0  0  0
   -3.2168    1.4045    1.5283 H   0  0  0  0  0  0  0  0  0  0  0  0
   -3.8384    0.3922    2.8306 H   0  0  0  0  0  0  0  0  0  0  0  0
  1  2  1  0
  2  3  1  0
  4  3  1  1
  4  5  1  0
  4  6  2  0
  4  7  1  0
  7  8  1  0
  8  9  1  0
  9 10  1  0
 10 11  1  0
 11 12  1  0
 11 13  1  0
 10 14  1  0
 14 15  1  0
 14 16  1  0
  1 17  1  0
  1 18  1  0
  1 19  1  0
  2 20  1  0
  2 21  1  0
  5 22  1  0
  5 23  1  0
  5 24  1  0
  8 25  1  0
  8 26  1  0
  9 27  1  0
  9 28  1  0
 10 29  1  6
 11 30  1  1
 12 31  1  0
 12 32  1  0
 12 33  1  0
 13 34  1  0
 13 35  1  0
 13 36  1  0
 14 37  1  6
 15 38  1  0
 15 39  1  0
 15 40  1  0
 16 41  1  0
 16 42  1  0
 16 43  1  0
M  CHG  1  10   1
M  END
$$$$
