VX
     RDKit          3D

 43 42  0  0  0  0  0  0  0  0999 V2000
    5.0581    0.8341    1.9148 C   0  0  0  0  0  0  0  0  0  0  0  0
    3.9261    1.1377    0.9541 C   0  0  0  0  0  0  0  0  0  0  0  0
    2.9898    0.0703    0.9833 O   0  0  0  0  0  0  0  0  0  0  0  0
    2.6901   -0.7371   -0.3828 P   0  0  2  0  0  0  0  0  0  0  0  0
    3.5468   -2.2709   -0.6807 C   0  0  0  0  0  0  0  0  0  0  0  0
    1.7076   -0.2156   -1.3950 O   0  0  0  0  0  0  0  0  0  0  0  0
    0.9534   -1.9166    0.6953 S   0  0  0  0  0  0  0  0  0  0  0  0
   -0.3140   -0.6568    1.0295 C   0  0  0  0  0  0  0  0  0  0  0  0
   -0.7987    0.0233   -0.2543 C   0  0  0  0  0  0  0  0  0  0  0  0
   -2.2323    0.5817   -0.1778 N   0  0  1  0  0  0  0  0  0  0  0  0
   -3.3355   -0.4879    0.0071 C   0  0  1  0  0  0  0  0  0  0  0  0
   -4.7154    0.1241   -0.2584 C   0  0  0  0  0  0  0  0  0  0  0  0
   -3.1281   -1.6607   -0.9556 C   0  0  0  0  0  0  0  0  0  0  0  0
   -2.4163    1.8602    0.6614 C   0  0  2  0  0  0  0  0  0  0  0  0
   -1.3329    2.8921    0.3556 C   0  0  0  0  0  0  0  0  0  0  0  0
   -2.5243    1.5813    2.1565 C   0  0  0  0  0  0  0  0  0  0  0  0
    5.7720    1.6608    1.9522 H   0  0  0  0  0  0  0  0  0  0  0  0
    5.5888   -0.0716    1.6101 H   0  0  0  0  0  0  0  0  0  0  0  0
    4.6745    0.6530    2.9211 H   0  0  0  0  0  0  0  0  0  0  0  0
    4.3146    1.2948   -0.0553 H   0  0  0  0  0  0  0  0  0  0  0  0
    3.4045    2.0497    1.2567 H   0  0  0  0  0  0  0  0  0  0  0  0
    2.9351   -2.9344   -1.2976 H   0  0  0  0  0  0  0  0  0  0  0  0
    4.4953   -2.1028   -1.2004 H   0  0  0  0  0  0  0  0  0  0  0  0
    3.7620   -2.7820    0.2630 H   0  0  0  0  0  0  0  0  0  0  0  0
   -1.1248   -1.1677    1.5537 H   0  0  0  0  0  0  0  0  0  0  0  0
    0.1203    0.0826    1.7085 H   0  0  0  0  0  0  0  0  0  0  0  0
   -0.7903   -0.6522   -1.1144 H   0  0  0  0  0  0  0  0  0  0  0  0
   -0.1510    0.8600   -0.5231 H   0  0  0  0  0  0  0  0  0  0  0  0
   -2.3799    0.9126   -1.1423 H   0  0  0  0  0  0  0  0  0  0  0  0
   -3.2744   -0.8470    1.0381 H   0  0  0  0  0  0  0  0  0  0  0  0
   -5.4899   -0.6526   -0.2267 H   0  0  0  0  0  0  0  0  0  0  0  0
   -4.9896    0.8642    0.4990 H   0  0  0  0  0  0  0  0  0  0  0  0
   -4.7581    0.6031   -1.2423 H   0  0  0  0  0  0  0  0  0  0  0  0
   -3.9696   -2.3638   -0.8988 H   0  0  0  0  0  0  0  0  0  0  0  0
   -3.0412   -1.3198   -1.9914 H   0  0  0  0  0  0  0  0  0  0  0  0
   -2.2346   -2.2376   -0.7013 H   0  0  0  0  0  0  0  0  0  0  0  0
   -3.3606    2.2965    0.3158 H   0  0  0  0  0  0  0  0  0  0  0  0
   -0.3691    2.6222    0.8000 H   0  0  0  0  0  0  0  0  0  0  0  0
   -1.2008    3.0254   -0.7232 H   0  0  0  0  0  0  0  0  0  0  0  0
   -1.6157    3.8653    0.7705 H   0  0  0  0  0  0  0  0  0  0  0  0
   -1.6288    1.1109    2.5653 H   0  0  0  0  0  0  0  0  0  0  0  0
   -2.6733    2.5198    2.7015 H   0  0  0  0  0  0  0  0  0  0  0  0
   -3.3831    0.9486    2.3893 H   0  0  0  0  0  0  0  0  0  0  0  0
  1  2  1  0
  2  3  1  0
  4  3  1  1
  4  5  1  0
  4  6  2  0
  4  7  1  0
  7  8  1  0
  8  9  1  0
  9 10  1  0
 10 11  1  0
 11 12  1  0
 11 13  1  0
 10 14  1  0
 14 15  1  0
 14 16  1  0
  1 17  1  0
  1 18  1  0
  1 19  1  0
  2 20  1  0
  2 21  1  0
  5 22  1  0
  5 23  1  0
  5 24  1  0
  8 25  1  0
  8 26  1  0
  9 27  1  0
  9 28  1  0
 10 29  1  1
 11 30  1  6
 12 31  1  0
 12 32  1  0
 12 33  1  0
 13 34  1  0
 13 35  1  0
 13 36  1  0
 14 37  1  1
 15 38  1  0
 15 39  1  0
 15 40  1  0
 16 41  1  0
 16 42  1  0
 16 43  1  0
M  CHG  1  10   1
M  END
$$$$
