VX
     RDKit          3D

 43 42  0  0  0  0  0  0  0  0999 V2000
    3.7928    1.9907    2.1541 C   0  0  0  0  0  0  0  0  0  0  0  0
    3.9915    1.0788    0.9611 C   0  0  0  0  0  0  0  0  0  0  0  0
    2.9824    0.0795    0.9814 O   0  0  0  0  0  0  0  0  0  0  0  0
    2.6948   -0.7425   -0.3811 P   0  0  2  0  0  0  0  0  0  0  0  0
    3.5458   -2.2758   -0.6877 C   0  0  0  0  0  0  0  0  0  0  0  0
    1.7113   -0.2145   -1.3878 O   0  0  0  0  0  0  0  0  0  0  0  0
    0.9580   -1.9220    0.6970 S   0  0  0  0  0  0  0  0  0  0  0  0
   -0.1645   -0.6311    1.2955 C   0  0  0  0  0  0  0  0  0  0  0  0
   -0.5845    0.3468    0.1897 C   0  0  0  0  0  0  0  0  0  0  0  0
   -1.7694    1.2224    0.6653 N   0  0  1  0  0  0  0  0  0  0  0  0
   -1.4290    2.7232    0.7070 C   0  0  1  0  0  0  0  0  0  0  0  0
   -0.2862    2.9756    1.6924 C   0  0  0  0  0  0  0  0  0  0  0  0
   -1.1399    3.2827   -0.6823 C   0  0  0  0  0  0  0  0  0  0  0  0
   -3.0782    0.8644   -0.0771 C   0  0  1  0  0  0  0  0  0  0  0  0
   -3.4537   -0.5907    0.2230 C   0  0  0  0  0  0  0  0  0  0  0  0
   -4.2298    1.7662    0.3701 C   0  0  0  0  0  0  0  0  0  0  0  0
    4.5639    2.7656    2.1853 H   0  0  0  0  0  0  0  0  0  0  0  0
    2.8102    2.4719    2.1108 H   0  0  0  0  0  0  0  0  0  0  0  0
    3.8270    1.4192    3.0875 H   0  0  0  0  0  0  0  0  0  0  0  0
    3.9311    1.6566    0.0337 H   0  0  0  0  0  0  0  0  0  0  0  0
    4.9713    0.5954    1.0160 H   0  0  0  0  0  0  0  0  0  0  0  0
    4.4761   -2.1040   -1.2361 H   0  0  0  0  0  0  0  0  0  0  0  0
    2.9216   -2.9460   -1.2854 H   0  0  0  0  0  0  0  0  0  0  0  0
    3.7887   -2.7795    0.2520 H   0  0  0  0  0  0  0  0  0  0  0  0
    0.3295   -0.0873    2.1072 H   0  0  0  0  0  0  0  0  0  0  0  0
   -1.0361   -1.1340    1.7244 H   0  0  0  0  0  0  0  0  0  0  0  0
   -0.8925   -0.1581   -0.7314 H   0  0  0  0  0  0  0  0  0  0  0  0
    0.2415    1.0134   -0.0562 H   0  0  0  0  0  0  0  0  0  0  0  0
   -1.9536    0.9787    1.6472 H   0  0  0  0  0  0  0  0  0  0  0  0
   -2.3075    3.2228    1.1257 H   0  0  0  0  0  0  0  0  0  0  0  0
   -0.1671    4.0514    1.8610 H   0  0  0  0  0  0  0  0  0  0  0  0
    0.6752    2.6000    1.3306 H   0  0  0  0  0  0  0  0  0  0  0  0
   -0.4932    2.5110    2.6621 H   0  0  0  0  0  0  0  0  0  0  0  0
   -0.9448    4.3586   -0.6181 H   0  0  0  0  0  0  0  0  0  0  0  0
   -0.2636    2.8232   -1.1482 H   0  0  0  0  0  0  0  0  0  0  0  0
   -1.9906    3.1500   -1.3567 H   0  0  0  0  0  0  0  0  0  0  0  0
   -2.8875    0.9948   -1.1475 H   0  0  0  0  0  0  0  0  0  0  0  0
   -3.5568   -0.7628    1.2999 H   0  0  0  0  0  0  0  0  0  0  0  0
   -2.7171   -1.2985   -0.1666 H   0  0  0  0  0  0  0  0  0  0  0  0
   -4.4101   -0.8452   -0.2481 H   0  0  0  0  0  0  0  0  0  0  0  0
   -4.3265    1.7850    1.4610 H   0  0  0  0  0  0  0  0  0  0  0  0
   -5.1806    1.4119   -0.0438 H   0  0  0  0  0  0  0  0  0  0  0  0
   -4.1047    2.7925    0.0114 H   0  0  0  0  0  0  0  0  0  0  0  0
  1  2  1  0
  2  3  1  0
  4  3  1  1
  4  5  1  0
  4  6  2  0
  4  7  1  0
  7  8  1  0
  8  9  1  0
  9 10  1  0
 10 11  1  0
 11 12  1  0
 11 13  1  0
 10 14  1  0
 14 15  1  0
 14 16  1  0
  1 17  1  0
  1 18  1  0
  1 19  1  0
  2 20  1  0
  2 21  1  0
  5 22  1  0
  5 23  1  0
  5 24  1  0
  8 25  1  0
  8 26  1  0
  9 27  1  0
  9 28  1  0
 10 29  1  6
 11 30  1  6
 12 31  1  0
 12 32  1  0
 12 33  1  0
 13 34  1  0
 13 35  1  0
 13 36  1  0
 14 37  1  6
 15 38  1  0
 15 39  1  0
 15 40  1  0
 16 41  1  0
 16 42  1  0
 16 43  1  0
M  CHG  1  10   1
M  END
$$$$
