VX
     RDKit          3D

 43 42  0  0  0  0  0  0  0  0999 V2000
    3.2689    0.2499    3.3414 C   0  0  0  0  0  0  0  0  0  0  0  0
    3.5267   -0.5945    2.1105 C   0  0  0  0  0  0  0  0  0  0  0  0
    2.9873    0.0736    0.9829 O   0  0  0  0  0  0  0  0  0  0  0  0
    2.6911   -0.7382   -0.3823 P   0  0  2  0  0  0  0  0  0  0  0  0
    3.5472   -2.2737   -0.6832 C   0  0  0  0  0  0  0  0  0  0  0  0
    1.7086   -0.2149   -1.3926 O   0  0  0  0  0  0  0  0  0  0  0  0
    0.9544   -1.9177    0.6958 S   0  0  0  0  0  0  0  0  0  0  0  0
   -0.4348   -0.7615    0.4984 C   0  0  0  0  0  0  0  0  0  0  0  0
   -1.7066   -1.3363    1.1219 C   0  0  0  0  0  0  0  0  0  0  0  0
   -2.9811   -0.5070    0.8644 N   0  0  2  0  0  0  0  0  0  0  0  0
   -3.7483   -0.8702   -0.4231 C   0  0  2  0  0  0  0  0  0  0  0  0
   -4.2048   -2.3299   -0.3894 C   0  0  0  0  0  0  0  0  0  0  0  0
   -2.9683   -0.5451   -1.6868 C   0  0  0  0  0  0  0  0  0  0  0  0
   -2.8184    1.0059    1.1443 C   0  0  2  0  0  0  0  0  0  0  0  0
   -2.3907    1.2100    2.6021 C   0  0  0  0  0  0  0  0  0  0  0  0
   -4.1299    1.7605    0.9155 C   0  0  0  0  0  0  0  0  0  0  0  0
    3.7213    1.2411    3.2313 H   0  0  0  0  0  0  0  0  0  0  0  0
    3.6790   -0.2279    4.2354 H   0  0  0  0  0  0  0  0  0  0  0  0
    2.1942    0.4044    3.4841 H   0  0  0  0  0  0  0  0  0  0  0  0
    3.0643   -1.5787    2.2287 H   0  0  0  0  0  0  0  0  0  0  0  0
    4.6032   -0.7244    1.9647 H   0  0  0  0  0  0  0  0  0  0  0  0
    4.5169   -2.0852   -1.1521 H   0  0  0  0  0  0  0  0  0  0  0  0
    3.7133   -2.8289    0.2439 H   0  0  0  0  0  0  0  0  0  0  0  0
    2.9610   -2.9081   -1.3544 H   0  0  0  0  0  0  0  0  0  0  0  0
   -0.1459    0.1786    0.9751 H   0  0  0  0  0  0  0  0  0  0  0  0
   -0.5607   -0.5687   -0.5661 H   0  0  0  0  0  0  0  0  0  0  0  0
   -1.9021   -2.3519    0.7713 H   0  0  0  0  0  0  0  0  0  0  0  0
   -1.6082   -1.3975    2.2122 H   0  0  0  0  0  0  0  0  0  0  0  0
   -3.6237   -0.8203    1.6048 H   0  0  0  0  0  0  0  0  0  0  0  0
   -4.6649   -0.2752   -0.4038 H   0  0  0  0  0  0  0  0  0  0  0  0
   -3.3842   -3.0306   -0.5694 H   0  0  0  0  0  0  0  0  0  0  0  0
   -4.6741   -2.5796    0.5679 H   0  0  0  0  0  0  0  0  0  0  0  0
   -4.9471   -2.5056   -1.1764 H   0  0  0  0  0  0  0  0  0  0  0  0
   -2.1497   -1.2512   -1.8535 H   0  0  0  0  0  0  0  0  0  0  0  0
   -2.5647    0.4711   -1.6723 H   0  0  0  0  0  0  0  0  0  0  0  0
   -3.6276   -0.6199   -2.5593 H   0  0  0  0  0  0  0  0  0  0  0  0
   -2.0545    1.3860    0.4593 H   0  0  0  0  0  0  0  0  0  0  0  0
   -1.4065    0.7841    2.8127 H   0  0  0  0  0  0  0  0  0  0  0  0
   -3.1103    0.7598    3.2948 H   0  0  0  0  0  0  0  0  0  0  0  0
   -2.3251    2.2785    2.8366 H   0  0  0  0  0  0  0  0  0  0  0  0
   -4.3803    1.8203   -0.1481 H   0  0  0  0  0  0  0  0  0  0  0  0
   -4.0464    2.7951    1.2674 H   0  0  0  0  0  0  0  0  0  0  0  0
   -4.9640    1.2927    1.4497 H   0  0  0  0  0  0  0  0  0  0  0  0
  1  2  1  0
  2  3  1  0
  4  3  1  1
  4  5  1  0
  4  6  2  0
  4  7  1  0
  7  8  1  0
  8  9  1  0
  9 10  1  0
 10 11  1  0
 11 12  1  0
 11 13  1  0
 10 14  1  0
 14 15  1  0
 14 16  1  0
  1 17  1  0
  1 18  1  0
  1 19  1  0
  2 20  1  0
  2 21  1  0
  5 22  1  0
  5 23  1  0
  5 24  1  0
  8 25  1  0
  8 26  1  0
  9 27  1  0
  9 28  1  0
 10 29  1  1
 11 30  1  6
 12 31  1  0
 12 32  1  0
 12 33  1  0
 13 34  1  0
 13 35  1  0
 13 36  1  0
 14 37  1  1
 15 38  1  0
 15 39  1  0
 15 40  1  0
 16 41  1  0
 16 42  1  0
 16 43  1  0
M  CHG  1  10   1
M  END
$$$$
