VX
     RDKit          3D

 43 42  0  0  0  0  0  0  0  0999 V2000
    3.8318    1.9255    2.2253 C   0  0  0  0  0  0  0  0  0  0  0  0
    3.9475    1.1210    0.9471 C   0  0  0  0  0  0  0  0  0  0  0  0
    2.9814    0.0806    0.9811 O   0  0  0  0  0  0  0  0  0  0  0  0
    2.6955   -0.7433   -0.3807 P   0  0  2  0  0  0  0  0  0  0  0  0
    3.5458   -2.2765   -0.6885 C   0  0  0  0  0  0  0  0  0  0  0  0
    1.7116   -0.2142   -1.3870 O   0  0  0  0  0  0  0  0  0  0  0  0
    0.9588   -1.9227    0.6973 S   0  0  0  0  0  0  0  0  0  0  0  0
   -0.5352   -0.9928    0.2401 C   0  0  0  0  0  0  0  0  0  0  0  0
   -0.4685    0.4549    0.7436 C   0  0  0  0  0  0  0  0  0  0  0  0
   -1.6545    1.3428    0.3217 N   0  0  1  0  0  0  0  0  0  0  0  0
   -1.4970    2.0383   -1.0468 C   0  0  2  0  0  0  0  0  0  0  0  0
   -1.5378    1.0667   -2.2157 C   0  0  0  0  0  0  0  0  0  0  0  0
   -0.2525    2.9265   -1.0716 C   0  0  0  0  0  0  0  0  0  0  0  0
   -3.0424    0.7285    0.6072 C   0  0  1  0  0  0  0  0  0  0  0  0
   -3.1614    0.3997    2.0993 C   0  0  0  0  0  0  0  0  0  0  0  0
   -4.1665    1.6969    0.2332 C   0  0  0  0  0  0  0  0  0  0  0  0
    2.8240    2.3430    2.3279 H   0  0  0  0  0  0  0  0  0  0  0  0
    4.5556    2.7450    2.2389 H   0  0  0  0  0  0  0  0  0  0  0  0
    4.0023    1.2875    3.0991 H   0  0  0  0  0  0  0  0  0  0  0  0
    3.7694    1.7662    0.0813 H   0  0  0  0  0  0  0  0  0  0  0  0
    4.9467    0.6830    0.8668 H   0  0  0  0  0  0  0  0  0  0  0  0
    3.7739   -2.7920    0.2489 H   0  0  0  0  0  0  0  0  0  0  0  0
    2.9260   -2.9377   -1.3016 H   0  0  0  0  0  0  0  0  0  0  0  0
    4.4833   -2.1045   -1.2239 H   0  0  0  0  0  0  0  0  0  0  0  0
   -1.3822   -1.5225    0.6829 H   0  0  0  0  0  0  0  0  0  0  0  0
   -0.6473   -1.0532   -0.8418 H   0  0  0  0  0  0  0  0  0  0  0  0
   -0.4614    0.4744    1.8397 H   0  0  0  0  0  0  0  0  0  0  0  0
    0.4403    0.9683    0.4308 H   0  0  0  0  0  0  0  0  0  0  0  0
   -1.5997    2.1326    0.9791 H   0  0  0  0  0  0  0  0  0  0  0  0
   -2.3458    2.7231   -1.1272 H   0  0  0  0  0  0  0  0  0  0  0  0
   -2.3722    0.3637   -2.1413 H   0  0  0  0  0  0  0  0  0  0  0  0
   -1.6636    1.6214   -3.1527 H   0  0  0  0  0  0  0  0  0  0  0  0
   -0.6070    0.5030   -2.3123 H   0  0  0  0  0  0  0  0  0  0  0  0
   -0.2891    3.5936   -1.9404 H   0  0  0  0  0  0  0  0  0  0  0  0
   -0.1926    3.5547   -0.1766 H   0  0  0  0  0  0  0  0  0  0  0  0
    0.6738    2.3516   -1.1564 H   0  0  0  0  0  0  0  0  0  0  0  0
   -3.1280   -0.1816    0.0056 H   0  0  0  0  0  0  0  0  0  0  0  0
   -4.1681    0.0357    2.3335 H   0  0  0  0  0  0  0  0  0  0  0  0
   -2.4679   -0.3870    2.4074 H   0  0  0  0  0  0  0  0  0  0  0  0
   -2.9727    1.2828    2.7194 H   0  0  0  0  0  0  0  0  0  0  0  0
   -4.2564    1.8112   -0.8512 H   0  0  0  0  0  0  0  0  0  0  0  0
   -4.0143    2.6851    0.6807 H   0  0  0  0  0  0  0  0  0  0  0  0
   -5.1344    1.3184    0.5810 H   0  0  0  0  0  0  0  0  0  0  0  0
  1  2  1  0
  2  3  1  0
  4  3  1  1
  4  5  1  0
  4  6  2  0
  4  7  1  0
  7  8  1  0
  8  9  1  0
  9 10  1  0
 10 11  1  0
 11 12  1  0
 11 13  1  0
 10 14  1  0
 14 15  1  0
 14 16  1  0
  1 17  1  0
  1 18  1  0
  1 19  1  0
  2 20  1  0
  2 21  1  0
  5 22  1  0
  5 23  1  0
  5 24  1  0
  8 25  1  0
  8 26  1  0
  9 27  1  0
  9 28  1  0
 10 29  1  6
 11 30  1  6
 12 31  1  0
 12 32  1  0
 12 33  1  0
 13 34  1  0
 13 35  1  0
 13 36  1  0
 14 37  1  6
 15 38  1  0
 15 39  1  0
 15 40  1  0
 16 41  1  0
 16 42  1  0
 16 43  1  0
M  CHG  1  10   1
M  END
$$$$
