VX
     RDKit          3D

 43 42  0  0  0  0  0  0  0  0999 V2000
    4.0822    1.7062    2.3251 C   0  0  0  0  0  0  0  0  0  0  0  0
    3.8119    1.2230    0.9147 C   0  0  0  0  0  0  0  0  0  0  0  0
    2.9935    0.0650    0.9835 O   0  0  0  0  0  0  0  0  0  0  0  0
    2.6875   -0.7343   -0.3839 P   0  0  2  0  0  0  0  0  0  0  0  0
    3.5464   -2.2670   -0.6770 C   0  0  0  0  0  0  0  0  0  0  0  0
    1.7068   -0.2170   -1.3978 O   0  0  0  0  0  0  0  0  0  0  0  0
    0.9508   -1.9138    0.6942 S   0  0  0  0  0  0  0  0  0  0  0  0
   -0.2874   -0.5986    0.9284 C   0  0  0  0  0  0  0  0  0  0  0  0
   -1.2748   -0.5008   -0.2473 C   0  0  0  0  0  0  0  0  0  0  0  0
   -1.8599   -1.8732   -0.6456 N   0  0  1  0  0  0  0  0  0  0  0  0
   -3.1864   -2.2311    0.0666 C   0  0  2  0  0  0  0  0  0  0  0  0
   -3.0763   -2.0644    1.5816 C   0  0  0  0  0  0  0  0  0  0  0  0
   -3.5796   -3.6818   -0.2296 C   0  0  0  0  0  0  0  0  0  0  0  0
   -1.9234   -2.0746   -2.1771 C   0  0  2  0  0  0  0  0  0  0  0  0
   -0.5235   -2.1423   -2.7830 C   0  0  0  0  0  0  0  0  0  0  0  0
   -2.7941   -1.0182   -2.8507 C   0  0  0  0  0  0  0  0  0  0  0  0
    4.6921    2.6138    2.3192 H   0  0  0  0  0  0  0  0  0  0  0  0
    4.6059    0.9347    2.8992 H   0  0  0  0  0  0  0  0  0  0  0  0
    3.1433    1.9136    2.8498 H   0  0  0  0  0  0  0  0  0  0  0  0
    3.2915    1.9973    0.3440 H   0  0  0  0  0  0  0  0  0  0  0  0
    4.7532    0.9829    0.4143 H   0  0  0  0  0  0  0  0  0  0  0  0
    4.4801   -2.0978   -1.2195 H   0  0  0  0  0  0  0  0  0  0  0  0
    2.9267   -2.9416   -1.2751 H   0  0  0  0  0  0  0  0  0  0  0  0
    3.7833   -2.7660    0.2671 H   0  0  0  0  0  0  0  0  0  0  0  0
   -0.8005   -0.7987    1.8700 H   0  0  0  0  0  0  0  0  0  0  0  0
    0.2237    0.3613    1.0570 H   0  0  0  0  0  0  0  0  0  0  0  0
   -2.1148    0.1637   -0.0186 H   0  0  0  0  0  0  0  0  0  0  0  0
   -0.7583   -0.0829   -1.1134 H   0  0  0  0  0  0  0  0  0  0  0  0
   -1.1612   -2.5575   -0.3140 H   0  0  0  0  0  0  0  0  0  0  0  0
   -3.9507   -1.5452   -0.3124 H   0  0  0  0  0  0  0  0  0  0  0  0
   -2.2362   -2.6341    1.9914 H   0  0  0  0  0  0  0  0  0  0  0  0
   -2.9765   -1.0129    1.8654 H   0  0  0  0  0  0  0  0  0  0  0  0
   -3.9868   -2.4229    2.0757 H   0  0  0  0  0  0  0  0  0  0  0  0
   -2.7404   -4.3667   -0.0697 H   0  0  0  0  0  0  0  0  0  0  0  0
   -3.9425   -3.8040   -1.2539 H   0  0  0  0  0  0  0  0  0  0  0  0
   -4.4020   -4.0040    0.4190 H   0  0  0  0  0  0  0  0  0  0  0  0
   -2.3633   -3.0605   -2.3419 H   0  0  0  0  0  0  0  0  0  0  0  0
   -0.0377   -1.1652   -2.8228 H   0  0  0  0  0  0  0  0  0  0  0  0
   -0.5842   -2.5038   -3.8156 H   0  0  0  0  0  0  0  0  0  0  0  0
    0.1180   -2.8378   -2.2338 H   0  0  0  0  0  0  0  0  0  0  0  0
   -2.8515   -1.2110   -3.9277 H   0  0  0  0  0  0  0  0  0  0  0  0
   -2.3970   -0.0070   -2.7238 H   0  0  0  0  0  0  0  0  0  0  0  0
   -3.8183   -1.0333   -2.4681 H   0  0  0  0  0  0  0  0  0  0  0  0
  1  2  1  0
  2  3  1  0
  4  3  1  1
  4  5  1  0
  4  6  2  0
  4  7  1  0
  7  8  1  0
  8  9  1  0
  9 10  1  0
 10 11  1  0
 11 12  1  0
 11 13  1  0
 10 14  1  0
 14 15  1  0
 14 16  1  0
  1 17  1  0
  1 18  1  0
  1 19  1  0
  2 20  1  0
  2 21  1  0
  5 22  1  0
  5 23  1  0
  5 24  1  0
  8 25  1  0
  8 26  1  0
  9 27  1  0
  9 28  1  0
 10 29  1  6
 11 30  1  6
 12 31  1  0
 12 32  1  0
 12 33  1  0
 13 34  1  0
 13 35  1  0
 13 36  1  0
 14 37  1  6
 15 38  1  0
 15 39  1  0
 15 40  1  0
 16 41  1  0
 16 42  1  0
 16 43  1  0
M  CHG  1  10   1
M  END
$$$$
