VX
     RDKit          3D

 43 42  0  0  0  0  0  0  0  0999 V2000
    3.9239    1.8256    2.2965 C   0  0  0  0  0  0  0  0  0  0  0  0
    3.8927    1.1642    0.9341 C   0  0  0  0  0  0  0  0  0  0  0  0
    2.9897    0.0701    0.9830 O   0  0  0  0  0  0  0  0  0  0  0  0
    2.6904   -0.7374   -0.3826 P   0  0  2  0  0  0  0  0  0  0  0  0
    3.5466   -2.2705   -0.6806 C   0  0  0  0  0  0  0  0  0  0  0  0
    1.7076   -0.2156   -1.3950 O   0  0  0  0  0  0  0  0  0  0  0  0
    0.9536   -1.9168    0.6955 S   0  0  0  0  0  0  0  0  0  0  0  0
   -0.3346   -0.6400    0.8447 C   0  0  0  0  0  0  0  0  0  0  0  0
   -0.9473   -0.2683   -0.5123 C   0  0  0  0  0  0  0  0  0  0  0  0
   -2.4663   -0.4655   -0.6359 N   0  0  1  0  0  0  0  0  0  0  0  0
   -3.0136   -1.9013   -0.6548 C   0  0  2  0  0  0  0  0  0  0  0  0
   -3.0812   -2.5780    0.7034 C   0  0  0  0  0  0  0  0  0  0  0  0
   -2.2460   -2.7553   -1.6660 C   0  0  0  0  0  0  0  0  0  0  0  0
   -3.3068    0.6590   -0.0105 C   0  0  1  0  0  0  0  0  0  0  0  0
   -4.7858    0.5044   -0.3572 C   0  0  0  0  0  0  0  0  0  0  0  0
   -3.0961    0.8399    1.4864 C   0  0  0  0  0  0  0  0  0  0  0  0
    4.2385    1.1116    3.0650 H   0  0  0  0  0  0  0  0  0  0  0  0
    4.6113    2.6761    2.3020 H   0  0  0  0  0  0  0  0  0  0  0  0
    2.9253    2.1763    2.5778 H   0  0  0  0  0  0  0  0  0  0  0  0
    4.8906    0.8031    0.6698 H   0  0  0  0  0  0  0  0  0  0  0  0
    3.5603    1.8809    0.1769 H   0  0  0  0  0  0  0  0  0  0  0  0
    3.7890   -2.7693    0.2621 H   0  0  0  0  0  0  0  0  0  0  0  0
    2.9244   -2.9456   -1.2753 H   0  0  0  0  0  0  0  0  0  0  0  0
    4.4770   -2.1008   -1.2288 H   0  0  0  0  0  0  0  0  0  0  0  0
    0.1472    0.2438    1.2765 H   0  0  0  0  0  0  0  0  0  0  0  0
   -1.0698   -0.9818    1.5720 H   0  0  0  0  0  0  0  0  0  0  0  0
   -0.5127   -0.8163   -1.3523 H   0  0  0  0  0  0  0  0  0  0  0  0
   -0.7761    0.7965   -0.7119 H   0  0  0  0  0  0  0  0  0  0  0  0
   -2.5819   -0.2283   -1.6315 H   0  0  0  0  0  0  0  0  0  0  0  0
   -4.0330   -1.8185   -1.0457 H   0  0  0  0  0  0  0  0  0  0  0  0
   -2.0959   -2.7855    1.1231 H   0  0  0  0  0  0  0  0  0  0  0  0
   -3.5813   -3.5490    0.6036 H   0  0  0  0  0  0  0  0  0  0  0  0
   -3.6680   -2.0064    1.4227 H   0  0  0  0  0  0  0  0  0  0  0  0
   -2.7636   -3.7082   -1.8240 H   0  0  0  0  0  0  0  0  0  0  0  0
   -1.2352   -2.9927   -1.3233 H   0  0  0  0  0  0  0  0  0  0  0  0
   -2.1763   -2.2560   -2.6382 H   0  0  0  0  0  0  0  0  0  0  0  0
   -2.9551    1.5723   -0.5083 H   0  0  0  0  0  0  0  0  0  0  0  0
   -4.9301    0.3630   -1.4334 H   0  0  0  0  0  0  0  0  0  0  0  0
   -5.2448   -0.3354    0.1740 H   0  0  0  0  0  0  0  0  0  0  0  0
   -5.3375    1.4069   -0.0708 H   0  0  0  0  0  0  0  0  0  0  0  0
   -3.7636    1.6217    1.8673 H   0  0  0  0  0  0  0  0  0  0  0  0
   -3.3014   -0.0626    2.0623 H   0  0  0  0  0  0  0  0  0  0  0  0
   -2.0800    1.1744    1.7107 H   0  0  0  0  0  0  0  0  0  0  0  0
  1  2  1  0
  2  3  1  0
  4  3  1  1
  4  5  1  0
  4  6  2  0
  4  7  1  0
  7  8  1  0
  8  9  1  0
  9 10  1  0
 10 11  1  0
 11 12  1  0
 11 13  1  0
 10 14  1  0
 14 15  1  0
 14 16  1  0
  1 17  1  0
  1 18  1  0
  1 19  1  0
  2 20  1  0
  2 21  1  0
  5 22  1  0
  5 23  1  0
  5 24  1  0
  8 25  1  0
  8 26  1  0
  9 27  1  0
  9 28  1  0
 10 29  1  1
 11 30  1  6
 12 31  1  0
 12 32  1  0
 12 33  1  0
 13 34  1  0
 13 35  1  0
 13 36  1  0
 14 37  1  6
 15 38  1  0
 15 39  1  0
 15 40  1  0
 16 41  1  0
 16 42  1  0
 16 43  1  0
M  CHG  1  10   1
M  END
$$$$
