VX
     RDKit          3D

 43 42  0  0  0  0  0  0  0  0999 V2000
    4.7309   -0.1035    2.6048 C   0  0  0  0  0  0  0  0  0  0  0  0
    3.3726   -0.6085    2.1647 C   0  0  0  0  0  0  0  0  0  0  0  0
    2.9879    0.0723    0.9825 O   0  0  0  0  0  0  0  0  0  0  0  0
    2.6908   -0.7376   -0.3822 P   0  0  2  0  0  0  0  0  0  0  0  0
    3.5474   -2.2732   -0.6823 C   0  0  0  0  0  0  0  0  0  0  0  0
    1.7082   -0.2149   -1.3932 O   0  0  0  0  0  0  0  0  0  0  0  0
    0.9540   -1.9170    0.6959 S   0  0  0  0  0  0  0  0  0  0  0  0
   -0.4583   -0.8193    0.3961 C   0  0  0  0  0  0  0  0  0  0  0  0
   -1.7345   -1.3753    1.0246 C   0  0  0  0  0  0  0  0  0  0  0  0
   -2.9358   -0.4618    0.6874 N   0  0  1  0  0  0  0  0  0  0  0  0
   -3.9201   -1.1380   -0.2961 C   0  0  1  0  0  0  0  0  0  0  0  0
   -5.1213   -0.2359   -0.5846 C   0  0  0  0  0  0  0  0  0  0  0  0
   -3.2026   -1.4324   -1.6179 C   0  0  0  0  0  0  0  0  0  0  0  0
   -3.5807    0.1796    1.9277 C   0  0  1  0  0  0  0  0  0  0  0  0
   -4.2185   -0.8632    2.8397 C   0  0  0  0  0  0  0  0  0  0  0  0
   -2.5614    1.0543    2.6589 C   0  0  0  0  0  0  0  0  0  0  0  0
    5.0467   -0.5906    3.5316 H   0  0  0  0  0  0  0  0  0  0  0  0
    5.4831   -0.2939    1.8325 H   0  0  0  0  0  0  0  0  0  0  0  0
    4.7069    0.9794    2.7654 H   0  0  0  0  0  0  0  0  0  0  0  0
    3.3986   -1.6914    2.0129 H   0  0  0  0  0  0  0  0  0  0  0  0
    2.6249   -0.3957    2.9348 H   0  0  0  0  0  0  0  0  0  0  0  0
    3.7256   -2.8276    0.2426 H   0  0  0  0  0  0  0  0  0  0  0  0
    4.5121   -2.0829   -1.1610 H   0  0  0  0  0  0  0  0  0  0  0  0
    2.9572   -2.9104   -1.3474 H   0  0  0  0  0  0  0  0  0  0  0  0
   -0.5839   -0.7057   -0.6840 H   0  0  0  0  0  0  0  0  0  0  0  0
   -0.2264    0.1665    0.8121 H   0  0  0  0  0  0  0  0  0  0  0  0
   -1.6317   -1.4327    2.1110 H   0  0  0  0  0  0  0  0  0  0  0  0
   -1.9712   -2.3842    0.6710 H   0  0  0  0  0  0  0  0  0  0  0  0
   -2.5629    0.3396    0.1584 H   0  0  0  0  0  0  0  0  0  0  0  0
   -4.2509   -2.0716    0.1716 H   0  0  0  0  0  0  0  0  0  0  0  0
   -4.8069    0.7675   -0.8914 H   0  0  0  0  0  0  0  0  0  0  0  0
   -5.7340   -0.6553   -1.3907 H   0  0  0  0  0  0  0  0  0  0  0  0
   -5.7797   -0.1465    0.2845 H   0  0  0  0  0  0  0  0  0  0  0  0
   -2.7758   -0.5217   -2.0522 H   0  0  0  0  0  0  0  0  0  0  0  0
   -2.3988   -2.1641   -1.4990 H   0  0  0  0  0  0  0  0  0  0  0  0
   -3.9021   -1.8542   -2.3483 H   0  0  0  0  0  0  0  0  0  0  0  0
   -4.3523    0.8594    1.5548 H   0  0  0  0  0  0  0  0  0  0  0  0
   -4.9763   -1.4518    2.3144 H   0  0  0  0  0  0  0  0  0  0  0  0
   -4.7193   -0.3693    3.6799 H   0  0  0  0  0  0  0  0  0  0  0  0
   -3.4855   -1.5558    3.2631 H   0  0  0  0  0  0  0  0  0  0  0  0
   -2.0846    1.7612    1.9717 H   0  0  0  0  0  0  0  0  0  0  0  0
   -3.0613    1.6395    3.4389 H   0  0  0  0  0  0  0  0  0  0  0  0
   -1.7771    0.4706    3.1491 H   0  0  0  0  0  0  0  0  0  0  0  0
  1  2  1  0
  2  3  1  0
  4  3  1  1
  4  5  1  0
  4  6  2  0
  4  7  1  0
  7  8  1  0
  8  9  1  0
  9 10  1  0
 10 11  1  0
 11 12  1  0
 11 13  1  0
 10 14  1  0
 14 15  1  0
 14 16  1  0
  1 17  1  0
  1 18  1  0
  1 19  1  0
  2 20  1  0
  2 21  1  0
  5 22  1  0
  5 23  1  0
  5 24  1  0
  8 25  1  0
  8 26  1  0
  9 27  1  0
  9 28  1  0
 10 29  1  1
 11 30  1  6
 12 31  1  0
 12 32  1  0
 12 33  1  0
 13 34  1  0
 13 35  1  0
 13 36  1  0
 14 37  1  6
 15 38  1  0
 15 39  1  0
 15 40  1  0
 16 41  1  0
 16 42  1  0
 16 43  1  0
M  CHG  1  10   1
M  END
$$$$
