VX
     RDKit          3D

 43 42  0  0  0  0  0  0  0  0999 V2000
    5.0434    0.8284    1.9311 C   0  0  0  0  0  0  0  0  0  0  0  0
    3.9259    1.1393    0.9566 C   0  0  0  0  0  0  0  0  0  0  0  0
    2.9834    0.0775    0.9809 O   0  0  0  0  0  0  0  0  0  0  0  0
    2.6947   -0.7420   -0.3806 P   0  0  2  0  0  0  0  0  0  0  0  0
    3.5461   -2.2748   -0.6861 C   0  0  0  0  0  0  0  0  0  0  0  0
    1.7100   -0.2140   -1.3893 O   0  0  0  0  0  0  0  0  0  0  0  0
    0.9580   -1.9215    0.6974 S   0  0  0  0  0  0  0  0  0  0  0  0
   -0.5421   -1.0844    0.1155 C   0  0  0  0  0  0  0  0  0  0  0  0
   -0.5691    0.3902    0.5418 C   0  0  0  0  0  0  0  0  0  0  0  0
   -1.7049    1.1483   -0.1930 N   0  0  2  0  0  0  0  0  0  0  0  0
   -1.1698    1.5967   -1.5771 C   0  0  2  0  0  0  0  0  0  0  0  0
   -0.4008    2.9119   -1.5119 C   0  0  0  0  0  0  0  0  0  0  0  0
   -2.2736    1.5791   -2.6307 C   0  0  0  0  0  0  0  0  0  0  0  0
   -2.3900    2.2011    0.7036 C   0  0  2  0  0  0  0  0  0  0  0  0
   -3.0398    1.5096    1.9135 C   0  0  0  0  0  0  0  0  0  0  0  0
   -3.5033    2.9403   -0.0381 C   0  0  0  0  0  0  0  0  0  0  0  0
    5.7741    1.6417    1.9605 H   0  0  0  0  0  0  0  0  0  0  0  0
    4.6445    0.6774    2.9396 H   0  0  0  0  0  0  0  0  0  0  0  0
    5.5566   -0.0974    1.6511 H   0  0  0  0  0  0  0  0  0  0  0  0
    4.3251    1.2941   -0.0509 H   0  0  0  0  0  0  0  0  0  0  0  0
    3.4074    2.0550    1.2587 H   0  0  0  0  0  0  0  0  0  0  0  0
    2.9297   -2.9365   -1.3012 H   0  0  0  0  0  0  0  0  0  0  0  0
    4.4868   -2.1024   -1.2160 H   0  0  0  0  0  0  0  0  0  0  0  0
    3.7693   -2.7901    0.2525 H   0  0  0  0  0  0  0  0  0  0  0  0
   -0.5953   -1.1974   -0.9706 H   0  0  0  0  0  0  0  0  0  0  0  0
   -1.4102   -1.6039    0.5343 H   0  0  0  0  0  0  0  0  0  0  0  0
    0.3580    0.9308    0.3389 H   0  0  0  0  0  0  0  0  0  0  0  0
   -0.7399    0.4483    1.6168 H   0  0  0  0  0  0  0  0  0  0  0  0
   -2.4349    0.4512   -0.3880 H   0  0  0  0  0  0  0  0  0  0  0  0
   -0.4672    0.8167   -1.8851 H   0  0  0  0  0  0  0  0  0  0  0  0
   -1.0403    3.7686   -1.2924 H   0  0  0  0  0  0  0  0  0  0  0  0
    0.3922    2.8822   -0.7586 H   0  0  0  0  0  0  0  0  0  0  0  0
    0.0776    3.1109   -2.4777 H   0  0  0  0  0  0  0  0  0  0  0  0
   -2.8741    0.6656   -2.5706 H   0  0  0  0  0  0  0  0  0  0  0  0
   -1.8278    1.6103   -3.6319 H   0  0  0  0  0  0  0  0  0  0  0  0
   -2.9450    2.4366   -2.5678 H   0  0  0  0  0  0  0  0  0  0  0  0
   -1.6137    2.8988    1.0351 H   0  0  0  0  0  0  0  0  0  0  0  0
   -2.3079    1.1425    2.6366 H   0  0  0  0  0  0  0  0  0  0  0  0
   -3.6692    0.6684    1.6035 H   0  0  0  0  0  0  0  0  0  0  0  0
   -3.6727    2.2140    2.4667 H   0  0  0  0  0  0  0  0  0  0  0  0
   -3.1160    3.6247   -0.7938 H   0  0  0  0  0  0  0  0  0  0  0  0
   -4.0796    3.5652    0.6543 H   0  0  0  0  0  0  0  0  0  0  0  0
   -4.2035    2.2450   -0.5125 H   0  0  0  0  0  0  0  0  0  0  0  0
  1  2  1  0
  2  3  1  0
  4  3  1  1
  4  5  1  0
  4  6  2  0
  4  7  1  0
  7  8  1  0
  8  9  1  0
  9 10  1  0
 10 11  1  0
 11 12  1  0
 11 13  1  0
 10 14  1  0
 14 15  1  0
 14 16  1  0
  1 17  1  0
  1 18  1  0
  1 19  1  0
  2 20  1  0
  2 21  1  0
  5 22  1  0
  5 23  1  0
  5 24  1  0
  8 25  1  0
  8 26  1  0
  9 27  1  0
  9 28  1  0
 10 29  1  6
 11 30  1  6
 12 31  1  0
 12 32  1  0
 12 33  1  0
 13 34  1  0
 13 35  1  0
 13 36  1  0
 14 37  1  6
 15 38  1  0
 15 39  1  0
 15 40  1  0
 16 41  1  0
 16 42  1  0
 16 43  1  0
M  CHG  1  10   1
M  END
$$$$
