@<TRIPOS>MOLECULE
*****
 5 4 0 0 0
SMALL
GASTEIGER

@<TRIPOS>ATOM
      1 O           1.1370    0.0810    0.0210 O.co2   1  LIG1       -0.9089
      2 P           2.6750    0.0810    0.0210 P.3     1  LIG1       -0.4994
      3 O           3.1870    1.5240    0.1600 O.co2   1  LIG1       -0.8639
      4 O           3.1870   -0.7610    1.2010 O.co2   1  LIG1       -0.8639
      5 O           3.1870   -0.5200   -1.2980 O.co2   1  LIG1       -0.8639
@<TRIPOS>BOND
     1     1     2    2
     2     2     3    1
     3     2     4    1
     4     2     5    1
