@<TRIPOS>MOLECULE
*****
 16 17 0 0 0
SMALL
GASTEIGER

@<TRIPOS>ATOM
      1 O2          1.9550   31.5780   -6.6700 O.3   900  HCY900     -0.2231
      2 O3          6.2270   30.4770   -9.7820 O.3   900  HCY900     -0.2181
      3 O4          4.0740   30.7530  -12.3530 O.2   900  HCY900     -0.2907
      4 O5          3.2460   28.3180  -11.9170 O.3   900  HCY900     -0.2118
      5 C8          4.5070   33.5230   -7.2940 C.3   900  HCY900      0.0027
      6 C9          4.2310   32.5540   -6.1390 C.3   900  HCY900      0.0329
      7 C11         3.3700   31.3200   -6.5360 C.3   900  HCY900      0.1521
      8 C12         3.9040   30.6620   -7.8200 C.3   900  HCY900      0.0357
      9 C13         4.1930   31.6290   -8.9690 C.3   900  HCY900      0.0348
     10 C14         5.0990   32.7340   -8.4430 C.3   900  HCY900      0.0029
     11 C15         5.4640   33.5060   -9.6810 C.3   900  HCY900      0.0031
     12 C16         5.4920   32.4750  -10.8010 C.3   900  HCY900      0.0377
     13 C17         5.0350   31.1780  -10.1900 C.3   900  HCY900      0.1796
     14 C18         2.8700   32.1950   -9.4900 C.3   900  HCY900      0.0030
     15 C20         4.3440   30.3240  -11.2360 C.2   900  HCY900      0.2109
     16 C21         3.9710   28.9290  -10.8580 C.3   900  HCY900      0.2484
@<TRIPOS>BOND
     1     3    15    2
     2     4    16    1
     3    15    16    1
     4    15    13    1
     5    12    13    1
     6    12    11    1
     7    13     2    1
     8    13     9    1
     9    11    10    1
    10    14     9    1
    11     9    10    1
    12     9     8    1
    13    10     5    1
    14     8     7    1
    15     5     6    1
    16     1     7    1
    17     7     6    1
